<?xml version='1.0' encoding='utf-8'?>
<routes>
  <flow id="flow_top3D3_D3top3" from="top3D3" to="D3top3" begin="0" end="20000" probability="0.00028882352941176465" departSpeed="max" departPos="base" departLane="best" />
  <flow id="flow_left0A0_A3top0" from="left0A0" to="A3top0" begin="0" end="20000" probability="0.00028882352941176465" departSpeed="max" departPos="base" departLane="best" />
  <flow id="flow_left0A0_B0bottom1" from="left0A0" to="B0bottom1" begin="0" end="20000" probability="0.00028882352941176465" departSpeed="max" departPos="base" departLane="best" />
  <flow id="flow_right3D3_A0bottom0" from="right3D3" to="A0bottom0" begin="0" end="20000" probability="0.00028882352941176465" departSpeed="max" departPos="base" departLane="best" />
  <flow id="flow_left2A2_A2left2" from="left2A2" to="A2left2" begin="0" end="20000" probability="0.00028882352941176465" departSpeed="max" departPos="base" departLane="best" />
  <flow id="flow_bottom1B0_B3top1" from="bottom1B0" to="B3top1" begin="0" end="20000" probability="0.00028882352941176465" departSpeed="max" departPos="base" departLane="best" />
  <flow id="flow_bottom1B0_A0left0" from="bottom1B0" to="A0left0" begin="0" end="20000" probability="0.00028882352941176465" departSpeed="max" departPos="base" departLane="best" />
  <flow id="flow_top1B3_D3top3" from="top1B3" to="D3top3" begin="0" end="20000" probability="0.00028882352941176465" departSpeed="max" departPos="base" departLane="best" />
  <flow id="flow_top2C3_D3top3" from="top2C3" to="D3top3" begin="0" end="20000" probability="0.00028882352941176465" departSpeed="max" departPos="base" departLane="best" />
  <flow id="flow_top1B3_D0right0" from="top1B3" to="D0right0" begin="0" end="20000" probability="0.00028882352941176465" departSpeed="max" departPos="base" departLane="best" />
  <flow id="flow_bottom2C0_D2right2" from="bottom2C0" to="D2right2" begin="0" end="20000" probability="0.00028882352941176465" departSpeed="max" departPos="base" departLane="best" />
  <flow id="flow_left1A1_A1left1" from="left1A1" to="A1left1" begin="0" end="20000" probability="0.00028882352941176465" departSpeed="max" departPos="base" departLane="best" />
  <flow id="flow_top3D3_D0right0" from="top3D3" to="D0right0" begin="0" end="20000" probability="0.00028882352941176465" departSpeed="max" departPos="base" departLane="best" />
  <flow id="flow_right1D1_D3top3" from="right1D1" to="D3top3" begin="0" end="20000" probability="0.00028882352941176465" departSpeed="max" departPos="base" departLane="best" />
  <flow id="flow_right0D0_D2right2" from="right0D0" to="D2right2" begin="0" end="20000" probability="0.00028882352941176465" departSpeed="max" departPos="base" departLane="best" />
  <flow id="flow_left0A0_D0right0" from="left0A0" to="D0right0" begin="0" end="20000" probability="0.00028882352941176465" departSpeed="max" departPos="base" departLane="best" />
  <flow id="flow_left2A2_B3top1" from="left2A2" to="B3top1" begin="0" end="20000" probability="0.00028882352941176465" departSpeed="max" departPos="base" departLane="best" />
  <flow id="flow_bottom2C0_D3right3" from="bottom2C0" to="D3right3" begin="0" end="20000" probability="0.00028882352941176465" departSpeed="max" departPos="base" departLane="best" />
  <flow id="flow_left0A0_D3right3" from="left0A0" to="D3right3" begin="0" end="20000" probability="0.00028882352941176465" departSpeed="max" departPos="base" departLane="best" />
  <flow id="flow_right2D2_C0bottom2" from="right2D2" to="C0bottom2" begin="0" end="20000" probability="0.00028882352941176465" departSpeed="max" departPos="base" departLane="best" />
  <flow id="flow_top0A3_C0bottom2" from="top0A3" to="C0bottom2" begin="0" end="20000" probability="0.00028882352941176465" departSpeed="max" departPos="base" departLane="best" />
  <flow id="flow_bottom2C0_D1right1" from="bottom2C0" to="D1right1" begin="0" end="20000" probability="0.00028882352941176465" departSpeed="max" departPos="base" departLane="best" />
  <flow id="flow_bottom2C0_B0bottom1" from="bottom2C0" to="B0bottom1" begin="0" end="20000" probability="0.00028882352941176465" departSpeed="max" departPos="base" departLane="best" />
  <flow id="flow_right3D3_D3top3" from="right3D3" to="D3top3" begin="0" end="20000" probability="0.00028882352941176465" departSpeed="max" departPos="base" departLane="best" />
  <flow id="flow_bottom0A0_B3top1" from="bottom0A0" to="B3top1" begin="0" end="20000" probability="0.00028882352941176465" departSpeed="max" departPos="base" departLane="best" />
  <flow id="flow_bottom1B0_A3left3" from="bottom1B0" to="A3left3" begin="0" end="20000" probability="0.00028882352941176465" departSpeed="max" departPos="base" departLane="best" />
  <flow id="flow_top0A3_B0bottom1" from="top0A3" to="B0bottom1" begin="0" end="20000" probability="0.00028882352941176465" departSpeed="max" departPos="base" departLane="best" />
  <flow id="flow_right2D2_A3left3" from="right2D2" to="A3left3" begin="0" end="20000" probability="0.00028882352941176465" departSpeed="max" departPos="base" departLane="best" />
  <flow id="flow_left3A3_B3top1" from="left3A3" to="B3top1" begin="0" end="20000" probability="0.00028882352941176465" departSpeed="max" departPos="base" departLane="best" />
  <flow id="flow_top2C3_D3right3" from="top2C3" to="D3right3" begin="0" end="20000" probability="0.00028882352941176465" departSpeed="max" departPos="base" departLane="best" />
  <flow id="flow_left1A1_D1right1" from="left1A1" to="D1right1" begin="0" end="20000" probability="0.00028882352941176465" departSpeed="max" departPos="base" departLane="best" />
  <flow id="flow_left1A1_D3top3" from="left1A1" to="D3top3" begin="0" end="20000" probability="0.00028882352941176465" departSpeed="max" departPos="base" departLane="best" />
  <flow id="flow_top0A3_A0left0" from="top0A3" to="A0left0" begin="0" end="20000" probability="0.00028882352941176465" departSpeed="max" departPos="base" departLane="best" />
  <flow id="flow_left2A2_D3top3" from="left2A2" to="D3top3" begin="0" end="20000" probability="0.00028882352941176465" departSpeed="max" departPos="base" departLane="best" />
  <flow id="flow_right3D3_A0left0" from="right3D3" to="A0left0" begin="0" end="20000" probability="0.00028882352941176465" departSpeed="max" departPos="base" departLane="best" />
  <flow id="flow_top3D3_A3left3" from="top3D3" to="A3left3" begin="0" end="20000" probability="0.00028882352941176465" departSpeed="max" departPos="base" departLane="best" />
  <flow id="flow_top1B3_A0left0" from="top1B3" to="A0left0" begin="0" end="20000" probability="0.00028882352941176465" departSpeed="max" departPos="base" departLane="best" />
  <flow id="flow_right0D0_B0bottom1" from="right0D0" to="B0bottom1" begin="0" end="20000" probability="0.00028882352941176465" departSpeed="max" departPos="base" departLane="best" />
  <flow id="flow_right1D1_A3left3" from="right1D1" to="A3left3" begin="0" end="20000" probability="0.00028882352941176465" departSpeed="max" departPos="base" departLane="best" />
  <flow id="flow_left0A0_D0bottom3" from="left0A0" to="D0bottom3" begin="0" end="20000" probability="0.00028882352941176465" departSpeed="max" departPos="base" departLane="best" />
  <flow id="flow_top0A3_A3left3" from="top0A3" to="A3left3" begin="0" end="20000" probability="0.00028882352941176465" departSpeed="max" departPos="base" departLane="best" />
  <flow id="flow_left1A1_A2left2" from="left1A1" to="A2left2" begin="0" end="20000" probability="0.00028882352941176465" departSpeed="max" departPos="base" departLane="best" />
  <flow id="flow_bottom1B0_B0bottom1" from="bottom1B0" to="B0bottom1" begin="0" end="20000" probability="0.00028882352941176465" departSpeed="max" departPos="base" departLane="best" />
  <flow id="flow_bottom1B0_C3top2" from="bottom1B0" to="C3top2" begin="0" end="20000" probability="0.00028882352941176465" departSpeed="max" departPos="base" departLane="best" />
  <flow id="flow_right3D3_B0bottom1" from="right3D3" to="B0bottom1" begin="0" end="20000" probability="0.00028882352941176465" departSpeed="max" departPos="base" departLane="best" />
  <flow id="flow_top2C3_D0bottom3" from="top2C3" to="D0bottom3" begin="0" end="20000" probability="0.00028882352941176465" departSpeed="max" departPos="base" departLane="best" />
  <flow id="flow_top1B3_A3left3" from="top1B3" to="A3left3" begin="0" end="20000" probability="0.00028882352941176465" departSpeed="max" departPos="base" departLane="best" />
  <flow id="flow_top2C3_C3top2" from="top2C3" to="C3top2" begin="0" end="20000" probability="0.00028882352941176465" departSpeed="max" departPos="base" departLane="best" />
  <flow id="flow_top0A3_A1left1" from="top0A3" to="A1left1" begin="0" end="20000" probability="0.00028882352941176465" departSpeed="max" departPos="base" departLane="best" />
  <flow id="flow_right1D1_C0bottom2" from="right1D1" to="C0bottom2" begin="0" end="20000" probability="0.00028882352941176465" departSpeed="max" departPos="base" departLane="best" />
  <flow id="flow_top1B3_C0bottom2" from="top1B3" to="C0bottom2" begin="0" end="20000" probability="0.00028882352941176465" departSpeed="max" departPos="base" departLane="best" />
  <flow id="flow_bottom0A0_B0bottom1" from="bottom0A0" to="B0bottom1" begin="0" end="20000" probability="0.00028882352941176465" departSpeed="max" departPos="base" departLane="best" />
  <flow id="flow_left3A3_C3top2" from="left3A3" to="C3top2" begin="0" end="20000" probability="0.00028882352941176465" departSpeed="max" departPos="base" departLane="best" />
  <flow id="flow_left0A0_A3left3" from="left0A0" to="A3left3" begin="0" end="20000" probability="0.00028882352941176465" departSpeed="max" departPos="base" departLane="best" />
  <flow id="flow_bottom3D0_C0bottom2" from="bottom3D0" to="C0bottom2" begin="0" end="20000" probability="0.00028882352941176465" departSpeed="max" departPos="base" departLane="best" />
  <flow id="flow_bottom3D0_B0bottom1" from="bottom3D0" to="B0bottom1" begin="0" end="20000" probability="0.00028882352941176465" departSpeed="max" departPos="base" departLane="best" />
  <flow id="flow_right3D3_C3top2" from="right3D3" to="C3top2" begin="0" end="20000" probability="0.00028882352941176465" departSpeed="max" departPos="base" departLane="best" />
  <flow id="flow_right3D3_D1right1" from="right3D3" to="D1right1" begin="0" end="20000" probability="0.00028882352941176465" departSpeed="max" departPos="base" departLane="best" />
  <flow id="flow_right3D3_D0right0" from="right3D3" to="D0right0" begin="0" end="20000" probability="0.00028882352941176465" departSpeed="max" departPos="base" departLane="best" />
  <flow id="flow_left0A0_A2left2" from="left0A0" to="A2left2" begin="0" end="20000" probability="0.00028882352941176465" departSpeed="max" departPos="base" departLane="best" />
  <flow id="flow_left2A2_C0bottom2" from="left2A2" to="C0bottom2" begin="0" end="20000" probability="0.00028882352941176465" departSpeed="max" departPos="base" departLane="best" />
  <flow id="flow_bottom0A0_A1left1" from="bottom0A0" to="A1left1" begin="0" end="20000" probability="0.00028882352941176465" departSpeed="max" departPos="base" departLane="best" />
  <flow id="flow_bottom2C0_D0bottom3" from="bottom2C0" to="D0bottom3" begin="0" end="20000" probability="0.00028882352941176465" departSpeed="max" departPos="base" departLane="best" />
  <flow id="flow_right1D1_A0bottom0" from="right1D1" to="A0bottom0" begin="0" end="20000" probability="0.00028882352941176465" departSpeed="max" departPos="base" departLane="best" />
  <flow id="flow_right1D1_B3top1" from="right1D1" to="B3top1" begin="0" end="20000" probability="0.00028882352941176465" departSpeed="max" departPos="base" departLane="best" />
  <flow id="flow_bottom3D0_D0bottom3" from="bottom3D0" to="D0bottom3" begin="0" end="20000" probability="0.00028882352941176465" departSpeed="max" departPos="base" departLane="best" />
  <flow id="flow_top0A3_D3right3" from="top0A3" to="D3right3" begin="0" end="20000" probability="0.00028882352941176465" departSpeed="max" departPos="base" departLane="best" />
  <flow id="flow_bottom0A0_D1right1" from="bottom0A0" to="D1right1" begin="0" end="20000" probability="0.00028882352941176465" departSpeed="max" departPos="base" departLane="best" />
  <flow id="flow_right0D0_D3top3" from="right0D0" to="D3top3" begin="0" end="20000" probability="0.00028882352941176465" departSpeed="max" departPos="base" departLane="best" />
  <flow id="flow_right0D0_A1left1" from="right0D0" to="A1left1" begin="0" end="20000" probability="0.00028882352941176465" departSpeed="max" departPos="base" departLane="best" />
  <flow id="flow_top1B3_C3top2" from="top1B3" to="C3top2" begin="0" end="20000" probability="0.00028882352941176465" departSpeed="max" departPos="base" departLane="best" />
  <flow id="flow_top0A3_D1right1" from="top0A3" to="D1right1" begin="0" end="20000" probability="0.00028882352941176465" departSpeed="max" departPos="base" departLane="best" />
  <flow id="flow_top0A3_D2right2" from="top0A3" to="D2right2" begin="0" end="20000" probability="0.00028882352941176465" departSpeed="max" departPos="base" departLane="best" />
  <flow id="flow_bottom3D0_D3top3" from="bottom3D0" to="D3top3" begin="0" end="20000" probability="0.00028882352941176465" departSpeed="max" departPos="base" departLane="best" />
  <flow id="flow_left3A3_A0bottom0" from="left3A3" to="A0bottom0" begin="0" end="20000" probability="0.00028882352941176465" departSpeed="max" departPos="base" departLane="best" />
  <flow id="flow_right1D1_D1right1" from="right1D1" to="D1right1" begin="0" end="20000" probability="0.00028882352941176465" departSpeed="max" departPos="base" departLane="best" />
  <flow id="flow_bottom1B0_C0bottom2" from="bottom1B0" to="C0bottom2" begin="0" end="20000" probability="0.00028882352941176465" departSpeed="max" departPos="base" departLane="best" />
  <flow id="flow_left3A3_A1left1" from="left3A3" to="A1left1" begin="0" end="20000" probability="0.00028882352941176465" departSpeed="max" departPos="base" departLane="best" />
  <flow id="flow_left1A1_A0bottom0" from="left1A1" to="A0bottom0" begin="0" end="20000" probability="0.00028882352941176465" departSpeed="max" departPos="base" departLane="best" />
  <flow id="flow_left0A0_D1right1" from="left0A0" to="D1right1" begin="0" end="20000" probability="0.00028882352941176465" departSpeed="max" departPos="base" departLane="best" />
  <flow id="flow_right0D0_D1right1" from="right0D0" to="D1right1" begin="0" end="20000" probability="0.00028882352941176465" departSpeed="max" departPos="base" departLane="best" />
  <flow id="flow_bottom1B0_D3right3" from="bottom1B0" to="D3right3" begin="0" end="20000" probability="0.00028882352941176465" departSpeed="max" departPos="base" departLane="best" />
  <flow id="flow_left1A1_D2right2" from="left1A1" to="D2right2" begin="0" end="20000" probability="0.00028882352941176465" departSpeed="max" departPos="base" departLane="best" />
  <flow id="flow_top3D3_D3right3" from="top3D3" to="D3right3" begin="0" end="20000" probability="0.00028882352941176465" departSpeed="max" departPos="base" departLane="best" />
  <flow id="flow_right0D0_A0bottom0" from="right0D0" to="A0bottom0" begin="0" end="20000" probability="0.00028882352941176465" departSpeed="max" departPos="base" departLane="best" />
  <flow id="flow_right0D0_B3top1" from="right0D0" to="B3top1" begin="0" end="20000" probability="0.00028882352941176465" departSpeed="max" departPos="base" departLane="best" />
  <flow id="flow_top0A3_A2left2" from="top0A3" to="A2left2" begin="0" end="20000" probability="0.00028882352941176465" departSpeed="max" departPos="base" departLane="best" />
  <flow id="flow_bottom0A0_D3top3" from="bottom0A0" to="D3top3" begin="0" end="20000" probability="0.00028882352941176465" departSpeed="max" departPos="base" departLane="best" />
  <flow id="flow_top3D3_A2left2" from="top3D3" to="A2left2" begin="0" end="20000" probability="0.00028882352941176465" departSpeed="max" departPos="base" departLane="best" />
  <flow id="flow_left2A2_A1left1" from="left2A2" to="A1left1" begin="0" end="20000" probability="0.00028882352941176465" departSpeed="max" departPos="base" departLane="best" />
  <flow id="flow_top1B3_D1right1" from="top1B3" to="D1right1" begin="0" end="20000" probability="0.00028882352941176465" departSpeed="max" departPos="base" departLane="best" />
  <flow id="flow_left3A3_A3left3" from="left3A3" to="A3left3" begin="0" end="20000" probability="0.00028882352941176465" departSpeed="max" departPos="base" departLane="best" />
  <flow id="flow_right3D3_A1left1" from="right3D3" to="A1left1" begin="0" end="20000" probability="0.00028882352941176465" departSpeed="max" departPos="base" departLane="best" />
  <flow id="flow_right0D0_C0bottom2" from="right0D0" to="C0bottom2" begin="0" end="20000" probability="0.00028882352941176465" departSpeed="max" departPos="base" departLane="best" />
  <flow id="flow_left1A1_B0bottom1" from="left1A1" to="B0bottom1" begin="0" end="20000" probability="0.00028882352941176465" departSpeed="max" departPos="base" departLane="best" />
  <flow id="flow_right2D2_A0bottom0" from="right2D2" to="A0bottom0" begin="0" end="20000" probability="0.00028882352941176465" departSpeed="max" departPos="base" departLane="best" />
  <flow id="flow_right3D3_C0bottom2" from="right3D3" to="C0bottom2" begin="0" end="20000" probability="0.00028882352941176465" departSpeed="max" departPos="base" departLane="best" />
  <flow id="flow_right0D0_D0right0" from="right0D0" to="D0right0" begin="0" end="20000" probability="0.00028882352941176465" departSpeed="max" departPos="base" departLane="best" />
  <flow id="flow_right3D3_A2left2" from="right3D3" to="A2left2" begin="0" end="20000" probability="0.00028882352941176465" departSpeed="max" departPos="base" departLane="best" />
  <flow id="flow_left0A0_B3top1" from="left0A0" to="B3top1" begin="0" end="20000" probability="0.00028882352941176465" departSpeed="max" departPos="base" departLane="best" />
  <flow id="flow_right1D1_D0bottom3" from="right1D1" to="D0bottom3" begin="0" end="20000" probability="0.00028882352941176465" departSpeed="max" departPos="base" departLane="best" />
  <flow id="flow_bottom3D0_A3left3" from="bottom3D0" to="A3left3" begin="0" end="20000" probability="0.00028882352941176465" departSpeed="max" departPos="base" departLane="best" />
  <flow id="flow_right2D2_C3top2" from="right2D2" to="C3top2" begin="0" end="20000" probability="0.00028882352941176465" departSpeed="max" departPos="base" departLane="best" />
  <flow id="flow_left0A0_A1left1" from="left0A0" to="A1left1" begin="0" end="20000" probability="0.00028882352941176465" departSpeed="max" departPos="base" departLane="best" />
  <flow id="flow_bottom0A0_A3top0" from="bottom0A0" to="A3top0" begin="0" end="20000" probability="0.00028882352941176465" departSpeed="max" departPos="base" departLane="best" />
  <flow id="flow_right2D2_B0bottom1" from="right2D2" to="B0bottom1" begin="0" end="20000" probability="0.00028882352941176465" departSpeed="max" departPos="base" departLane="best" />
  <flow id="flow_bottom0A0_A0left0" from="bottom0A0" to="A0left0" begin="0" end="20000" probability="0.00028882352941176465" departSpeed="max" departPos="base" departLane="best" />
  <flow id="flow_bottom1B0_D0right0" from="bottom1B0" to="D0right0" begin="0" end="20000" probability="0.00028882352941176465" departSpeed="max" departPos="base" departLane="best" />
  <flow id="flow_left0A0_D3top3" from="left0A0" to="D3top3" begin="0" end="20000" probability="0.00028882352941176465" departSpeed="max" departPos="base" departLane="best" />
  <flow id="flow_right0D0_A3left3" from="right0D0" to="A3left3" begin="0" end="20000" probability="0.00028882352941176465" departSpeed="max" departPos="base" departLane="best" />
  <flow id="flow_bottom0A0_D0bottom3" from="bottom0A0" to="D0bottom3" begin="0" end="20000" probability="0.00028882352941176465" departSpeed="max" departPos="base" departLane="best" />
  <flow id="flow_right2D2_A2left2" from="right2D2" to="A2left2" begin="0" end="20000" probability="0.00028882352941176465" departSpeed="max" departPos="base" departLane="best" />
  <flow id="flow_bottom1B0_D3top3" from="bottom1B0" to="D3top3" begin="0" end="20000" probability="0.00028882352941176465" departSpeed="max" departPos="base" departLane="best" />
  <flow id="flow_left3A3_B0bottom1" from="left3A3" to="B0bottom1" begin="0" end="20000" probability="0.00028882352941176465" departSpeed="max" departPos="base" departLane="best" />
  <flow id="flow_left3A3_A0left0" from="left3A3" to="A0left0" begin="0" end="20000" probability="0.00028882352941176465" departSpeed="max" departPos="base" departLane="best" />
  <flow id="flow_bottom2C0_A2left2" from="bottom2C0" to="A2left2" begin="0" end="20000" probability="0.00028882352941176465" departSpeed="max" departPos="base" departLane="best" />
  <flow id="flow_right3D3_A3top0" from="right3D3" to="A3top0" begin="0" end="20000" probability="0.00028882352941176465" departSpeed="max" departPos="base" departLane="best" />
  <flow id="flow_top2C3_D1right1" from="top2C3" to="D1right1" begin="0" end="20000" probability="0.00028882352941176465" departSpeed="max" departPos="base" departLane="best" />
  <flow id="flow_left2A2_D0bottom3" from="left2A2" to="D0bottom3" begin="0" end="20000" probability="0.00028882352941176465" departSpeed="max" departPos="base" departLane="best" />
  <flow id="flow_left3A3_D1right1" from="left3A3" to="D1right1" begin="0" end="20000" probability="0.00028882352941176465" departSpeed="max" departPos="base" departLane="best" />
  <flow id="flow_right1D1_A1left1" from="right1D1" to="A1left1" begin="0" end="20000" probability="0.00028882352941176465" departSpeed="max" departPos="base" departLane="best" />
  <flow id="flow_left2A2_A3left3" from="left2A2" to="A3left3" begin="0" end="20000" probability="0.00028882352941176465" departSpeed="max" departPos="base" departLane="best" />
  <flow id="flow_right1D1_A3top0" from="right1D1" to="A3top0" begin="0" end="20000" probability="0.00028882352941176465" departSpeed="max" departPos="base" departLane="best" />
  <flow id="flow_top2C3_A3top0" from="top2C3" to="A3top0" begin="0" end="20000" probability="0.00028882352941176465" departSpeed="max" departPos="base" departLane="best" />
  <flow id="flow_bottom3D0_A0left0" from="bottom3D0" to="A0left0" begin="0" end="20000" probability="0.00028882352941176465" departSpeed="max" departPos="base" departLane="best" />
  <flow id="flow_bottom3D0_B3top1" from="bottom3D0" to="B3top1" begin="0" end="20000" probability="0.00028882352941176465" departSpeed="max" departPos="base" departLane="best" />
  <flow id="flow_left1A1_D0bottom3" from="left1A1" to="D0bottom3" begin="0" end="20000" probability="0.00028882352941176465" departSpeed="max" departPos="base" departLane="best" />
  <flow id="flow_bottom0A0_D3right3" from="bottom0A0" to="D3right3" begin="0" end="20000" probability="0.00028882352941176465" departSpeed="max" departPos="base" departLane="best" />
  <flow id="flow_right2D2_D1right1" from="right2D2" to="D1right1" begin="0" end="20000" probability="0.00028882352941176465" departSpeed="max" departPos="base" departLane="best" />
  <flow id="flow_top2C3_C0bottom2" from="top2C3" to="C0bottom2" begin="0" end="20000" probability="0.00028882352941176465" departSpeed="max" departPos="base" departLane="best" />
  <flow id="flow_bottom3D0_A3top0" from="bottom3D0" to="A3top0" begin="0" end="20000" probability="0.00028882352941176465" departSpeed="max" departPos="base" departLane="best" />
  <flow id="flow_left2A2_B0bottom1" from="left2A2" to="B0bottom1" begin="0" end="20000" probability="0.00028882352941176465" departSpeed="max" departPos="base" departLane="best" />
  <flow id="flow_bottom3D0_D3right3" from="bottom3D0" to="D3right3" begin="0" end="20000" probability="0.00028882352941176465" departSpeed="max" departPos="base" departLane="best" />
  <flow id="flow_right2D2_A0left0" from="right2D2" to="A0left0" begin="0" end="20000" probability="0.00028882352941176465" departSpeed="max" departPos="base" departLane="best" />
  <flow id="flow_bottom2C0_C0bottom2" from="bottom2C0" to="C0bottom2" begin="0" end="20000" probability="0.00028882352941176465" departSpeed="max" departPos="base" departLane="best" />
  <flow id="flow_bottom1B0_A2left2" from="bottom1B0" to="A2left2" begin="0" end="20000" probability="0.00028882352941176465" departSpeed="max" departPos="base" departLane="best" />
  <flow id="flow_right2D2_D2right2" from="right2D2" to="D2right2" begin="0" end="20000" probability="0.00028882352941176465" departSpeed="max" departPos="base" departLane="best" />
  <flow id="flow_top3D3_B3top1" from="top3D3" to="B3top1" begin="0" end="20000" probability="0.00028882352941176465" departSpeed="max" departPos="base" departLane="best" />
  <flow id="flow_right0D0_C3top2" from="right0D0" to="C3top2" begin="0" end="20000" probability="0.00028882352941176465" departSpeed="max" departPos="base" departLane="best" />
  <flow id="flow_top2C3_A2left2" from="top2C3" to="A2left2" begin="0" end="20000" probability="0.00028882352941176465" departSpeed="max" departPos="base" departLane="best" />
  <flow id="flow_bottom1B0_A1left1" from="bottom1B0" to="A1left1" begin="0" end="20000" probability="0.00028882352941176465" departSpeed="max" departPos="base" departLane="best" />
  <flow id="flow_top2C3_B3top1" from="top2C3" to="B3top1" begin="0" end="20000" probability="0.00028882352941176465" departSpeed="max" departPos="base" departLane="best" />
  <flow id="flow_right1D1_A0left0" from="right1D1" to="A0left0" begin="0" end="20000" probability="0.00028882352941176465" departSpeed="max" departPos="base" departLane="best" />
  <flow id="flow_bottom2C0_D0right0" from="bottom2C0" to="D0right0" begin="0" end="20000" probability="0.00028882352941176465" departSpeed="max" departPos="base" departLane="best" />
  <flow id="flow_right3D3_D2right2" from="right3D3" to="D2right2" begin="0" end="20000" probability="0.00028882352941176465" departSpeed="max" departPos="base" departLane="best" />
  <flow id="flow_top3D3_A1left1" from="top3D3" to="A1left1" begin="0" end="20000" probability="0.00028882352941176465" departSpeed="max" departPos="base" departLane="best" />
  <flow id="flow_right1D1_D3right3" from="right1D1" to="D3right3" begin="0" end="20000" probability="0.00028882352941176465" departSpeed="max" departPos="base" departLane="best" />
  <flow id="flow_bottom3D0_A2left2" from="bottom3D0" to="A2left2" begin="0" end="20000" probability="0.00028882352941176465" departSpeed="max" departPos="base" departLane="best" />
  <flow id="flow_bottom2C0_B3top1" from="bottom2C0" to="B3top1" begin="0" end="20000" probability="0.00028882352941176465" departSpeed="max" departPos="base" departLane="best" />
  <flow id="flow_top1B3_A0bottom0" from="top1B3" to="A0bottom0" begin="0" end="20000" probability="0.00028882352941176465" departSpeed="max" departPos="base" departLane="best" />
  <flow id="flow_top1B3_A3top0" from="top1B3" to="A3top0" begin="0" end="20000" probability="0.00028882352941176465" departSpeed="max" departPos="base" departLane="best" />
  <flow id="flow_left0A0_A0bottom0" from="left0A0" to="A0bottom0" begin="0" end="20000" probability="0.00028882352941176465" departSpeed="max" departPos="base" departLane="best" />
  <flow id="flow_left0A0_A0left0" from="left0A0" to="A0left0" begin="0" end="20000" probability="0.00028882352941176465" departSpeed="max" departPos="base" departLane="best" />
  <flow id="flow_top1B3_D3right3" from="top1B3" to="D3right3" begin="0" end="20000" probability="0.00028882352941176465" departSpeed="max" departPos="base" departLane="best" />
  <flow id="flow_bottom1B0_D0bottom3" from="bottom1B0" to="D0bottom3" begin="0" end="20000" probability="0.00028882352941176465" departSpeed="max" departPos="base" departLane="best" />
  <flow id="flow_top0A3_D0bottom3" from="top0A3" to="D0bottom3" begin="0" end="20000" probability="0.00028882352941176465" departSpeed="max" departPos="base" departLane="best" />
  <flow id="flow_right3D3_D3right3" from="right3D3" to="D3right3" begin="0" end="20000" probability="0.00028882352941176465" departSpeed="max" departPos="base" departLane="best" />
  <flow id="flow_right3D3_B3top1" from="right3D3" to="B3top1" begin="0" end="20000" probability="0.00028882352941176465" departSpeed="max" departPos="base" departLane="best" />
  <flow id="flow_left2A2_A0bottom0" from="left2A2" to="A0bottom0" begin="0" end="20000" probability="0.00028882352941176465" departSpeed="max" departPos="base" departLane="best" />
  <flow id="flow_right0D0_D0bottom3" from="right0D0" to="D0bottom3" begin="0" end="20000" probability="0.00028882352941176465" departSpeed="max" departPos="base" departLane="best" />
  <flow id="flow_bottom1B0_A0bottom0" from="bottom1B0" to="A0bottom0" begin="0" end="20000" probability="0.00028882352941176465" departSpeed="max" departPos="base" departLane="best" />
  <flow id="flow_bottom2C0_A1left1" from="bottom2C0" to="A1left1" begin="0" end="20000" probability="0.00028882352941176465" departSpeed="max" departPos="base" departLane="best" />
  <flow id="flow_left0A0_C0bottom2" from="left0A0" to="C0bottom2" begin="0" end="20000" probability="0.00028882352941176465" departSpeed="max" departPos="base" departLane="best" />
  <flow id="flow_bottom2C0_A0bottom0" from="bottom2C0" to="A0bottom0" begin="0" end="20000" probability="0.00028882352941176465" departSpeed="max" departPos="base" departLane="best" />
  <flow id="flow_bottom2C0_C3top2" from="bottom2C0" to="C3top2" begin="0" end="20000" probability="0.00028882352941176465" departSpeed="max" departPos="base" departLane="best" />
  <flow id="flow_top1B3_D0bottom3" from="top1B3" to="D0bottom3" begin="0" end="20000" probability="0.00028882352941176465" departSpeed="max" departPos="base" departLane="best" />
  <flow id="flow_right1D1_C3top2" from="right1D1" to="C3top2" begin="0" end="20000" probability="0.00028882352941176465" departSpeed="max" departPos="base" departLane="best" />