<?xml version='1.0' encoding='utf-8'?>
<routes>
  <flow id="flow_201963533#5_-136436468#0" from="201963533#5" to="-136436468#0" begin="0" end="10000" probability="0.0001010091743119266" departSpeed="max" departPos="base" departLane="best" />
  <flow id="flow_24634510#1_233675413#1" from="24634510#1" to="233675413#1" begin="0" end="10000" probability="0.0001010091743119266" departSpeed="max" departPos="base" departLane="best" />
  <flow id="flow_315358245.27_-201238726#0" from="315358245.27" to="-201238726#0" begin="0" end="10000" probability="0.0001010091743119266" departSpeed="max" departPos="base" departLane="best" />
  <flow id="flow_-24634514#1_160314346#1" from="-24634514#1" to="160314346#1" begin="0" end="10000" probability="0.0001010091743119266" departSpeed="max" departPos="base" departLane="best" />
  <flow id="flow_-137454133#0_-24634506#2" from="-137454133#0" to="-24634506#2" begin="0" end="10000" probability="0.0001010091743119266" departSpeed="max" departPos="base" departLane="best" />
  <flow id="flow_224251774#0_18813598#0" from="224251774#0" to="18813598#0" begin="0" end="10000" probability="0.0001010091743119266" departSpeed="max" departPos="base" departLane="best" />
  <flow id="flow_-24634516#0_201238730" from="-24634516#0" to="201238730" begin="0" end="10000" probability="0.0001010091743119266" departSpeed="max" departPos="base" departLane="best" />
  <flow id="flow_25187896_-10427692#5" from="25187896" to="-10427692#5" begin="0" end="10000" probability="0.0001010091743119266" departSpeed="max" departPos="base" departLane="best" />
  <flow id="flow_25187893_24634413#0" from="25187893" to="24634413#0" begin="0" end="10000" probability="0.0002020183486238532" departSpeed="max" departPos="base" departLane="best" />
  <flow id="flow_-286646456#2_-22724699#2" from="-286646456#2" to="-22724699#2" begin="0" end="10000" probability="0.0001010091743119266" departSpeed="max" departPos="base" departLane="best" />
  <flow id="flow_-201950247#0_-201950247#8" from="-201950247#0" to="-201950247#8" begin="0" end="10000" probability="0.0001010091743119266" departSpeed="max" departPos="base" departLane="best" />
  <flow id="flow_26677540#0_201950259#4" from="26677540#0" to="201950259#4" begin="0" end="10000" probability="0.0001010091743119266" departSpeed="max" departPos="base" departLane="best" />
  <flow id="flow_25187895#0_24634510#7" from="25187895#0" to="24634510#7" begin="0" end="10000" probability="0.0001010091743119266" departSpeed="max" departPos="base" departLane="best" />
  <flow id="flow_172488482#0_51857517#0" from="172488482#0" to="51857517#0" begin="0" end="10000" probability="0.0001010091743119266" departSpeed="max" departPos="base" departLane="best" />
  <flow id="flow_-32395288#1_201089423#0" from="-32395288#1" to="201089423#0" begin="0" end="10000" probability="0.0001010091743119266" departSpeed="max" departPos="base" departLane="best" />
  <flow id="flow_26677214#4_201963522#2" from="26677214#4" to="201963522#2" begin="0" end="10000" probability="0.0001010091743119266" departSpeed="max" departPos="base" departLane="best" />
  <flow id="flow_28111977#10_201238718#1" from="28111977#10" to="201238718#1" begin="0" end="10000" probability="0.0001010091743119266" departSpeed="max" departPos="base" departLane="best" />
  <flow id="flow_24608844_-164078530" from="24608844" to="-164078530" begin="0" end="10000" probability="0.0001010091743119266" departSpeed="max" departPos="base" departLane="best" />
  <flow id="flow_-24634517#18_-26642363" from="-24634517#18" to="-26642363" begin="0" end="10000" probability="0.0001010091743119266" departSpeed="max" departPos="base" departLane="best" />
  <flow id="flow_-201201945#2_-24634518#2" from="-201201945#2" to="-24634518#2" begin="0" end="10000" probability="0.0001010091743119266" departSpeed="max" departPos="base" departLane="best" />
  <flow id="flow_-201950250#1_-25190140#1" from="-201950250#1" to="-25190140#1" begin="0" end="10000" probability="0.0001010091743119266" departSpeed="max" departPos="base" departLane="best" />
  <flow id="flow_201963533#1_-315358257#2" from="201963533#1" to="-315358257#2" begin="0" end="10000" probability="0.0001010091743119266" departSpeed="max" departPos="base" departLane="best" />
  <flow id="flow_-31860333#1_-24634510#5" from="-31860333#1" to="-24634510#5" begin="0" end="10000" probability="0.0001010091743119266" departSpeed="max" departPos="base" departLane="best" />
  <flow id="flow_204588664#0_201956811#0" from="204588664#0" to="201956811#0" begin="0" end="10000" probability="0.0002020183486238532" departSpeed="max" departPos="base" departLane="best" />
  <flow id="flow_-23436553#3_24634510#7" from="-23436553#3" to="24634510#7" begin="0" end="10000" probability="0.0001010091743119266" departSpeed="max" departPos="base" departLane="best" />
  <flow id="flow_-233675413#2_-32395288#3" from="-233675413#2" to="-32395288#3" begin="0" end="10000" probability="0.0001010091743119266" departSpeed="max" departPos="base" departLane="best" />
  <flow id="flow_612075153#0_224251774#1" from="612075153#0" to="224251774#1" begin="0" end="10000" probability="0.0001010091743119266" departSpeed="max" departPos="base" departLane="best" />
  <flow id="flow_18813598#0_23436553#2" from="18813598#0" to="23436553#2" begin="0" end="10000" probability="0.0001010091743119266" departSpeed="max" departPos="base" departLane="best" />
  <flow id="flow_26677416#4_25145012#2" from="26677416#4" to="25145012#2" begin="0" end="10000" probability="0.0001010091743119266" departSpeed="max" departPos="base" departLane="best" />
  <flow id="flow_-24634517#19_-160314345#0" from="-24634517#19" to="-160314345#0" begin="0" end="10000" probability="0.0001010091743119266" departSpeed="max" departPos="base" departLane="best" />
  <flow id="flow_-26677540#2_-25149001#5" from="-26677540#2" to="-25149001#5" begin="0" end="10000" probability="0.0001010091743119266" departSpeed="max" departPos="base" departLane="best" />
  <flow id="flow_-24634510#18_386687242" from="-24634510#18" to="386687242" begin="0" end="10000" probability="0.0001010091743119266" departSpeed="max" departPos="base" departLane="best" />
  <flow id="flow_285549250#0_-26677540#1" from="285549250#0" to="-26677540#1" begin="0" end="10000" probability="0.0001010091743119266" departSpeed="max" departPos="base" departLane="best" />
  <flow id="flow_224892361#1_-379897806" from="224892361#1" to="-379897806" begin="0" end="10000" probability="0.0001010091743119266" departSpeed="max" departPos="base" departLane="best" />
  <flow id="flow_31860333#2_120125554" from="31860333#2" to="120125554" begin="0" end="10000" probability="0.0001010091743119266" departSpeed="max" departPos="base" departLane="best" />
  <flow id="flow_-25145012#6_-25145011#0" from="-25145012#6" to="-25145011#0" begin="0" end="10000" probability="0.0001010091743119266" departSpeed="max" departPos="base" departLane="best" />
  <flow id="flow_18813598#8_-25145014#2" from="18813598#8" to="-25145014#2" begin="0" end="10000" probability="0.0001010091743119266" departSpeed="max" departPos="base" departLane="best" />
  <flow id="flow_201201953#12_31860333#0" from="201201953#12" to="31860333#0" begin="0" end="10000" probability="0.0001010091743119266" departSpeed="max" departPos="base" departLane="best" />
  <flow id="flow_-37681425#6_-24634517#12" from="-37681425#6" to="-24634517#12" begin="0" end="10000" probability="0.0001010091743119266" departSpeed="max" departPos="base" departLane="best" />
  <flow id="flow_-201238726#1_-170018165#0" from="-201238726#1" to="-170018165#0" begin="0" end="10000" probability="0.0001010091743119266" departSpeed="max" departPos="base" departLane="best" />
  <flow id="flow_-201963522#1_201963533#5" from="-201963522#1" to="201963533#5" begin="0" end="10000" probability="0.0001010091743119266" departSpeed="max" departPos="base" departLane="best" />
  <flow id="flow_25145014#0_-54169231#1" from="25145014#0" to="-54169231#1" begin="0" end="10000" probability="0.0001010091743119266" departSpeed="max" departPos="base" departLane="best" />
  <flow id="flow_-18809672#7_-32395414#1" from="-18809672#7" to="-32395414#1" begin="0" end="10000" probability="0.0001010091743119266" departSpeed="max" departPos="base" departLane="best" />
  <flow id="flow_653473569#1_175770996#0" from="653473569#1" to="175770996#0" begin="0" end="10000" probability="0.0001010091743119266" departSpeed="max" departPos="base" departLane="best" />
  <flow id="flow_4942389#1_28319300#3" from="4942389#1" to="28319300#3" begin="0" end="10000" probability="0.0001010091743119266" departSpeed="max" departPos="base" departLane="best" />
  <flow id="flow_-120125554_24634508" from="-120125554" to="24634508" begin="0" end="10000" probability="0.0001010091743119266" departSpeed="max" departPos="base" departLane="best" />
  <flow id="flow_23166741#0_176550249#4" from="23166741#0" to="176550249#4" begin="0" end="10000" probability="0.0001010091743119266" departSpeed="max" departPos="base" departLane="best" />
  <flow id="flow_-25145013#1_224251774#1" from="-25145013#1" to="224251774#1" begin="0" end="10000" probability="0.0001010091743119266" departSpeed="max" departPos="base" departLane="best" />
  <flow id="flow_-201963522#2_-653473569#5" from="-201963522#2" to="-653473569#5" begin="0" end="10000" probability="0.0001010091743119266" departSpeed="max" departPos="base" departLane="best" />
  <flow id="flow_10425609#0_40888354#0" from="10425609#0" to="40888354#0" begin="0" end="10000" probability="0.0001010091743119266" departSpeed="max" departPos="base" departLane="best" />
  <flow id="flow_285549250#0_-25145014#2" from="285549250#0" to="-25145014#2" begin="0" end="10000" probability="0.0001010091743119266" departSpeed="max" departPos="base" departLane="best" />
  <flow id="flow_-26677214#4_224251774#0" from="-26677214#4" to="224251774#0" begin="0" end="10000" probability="0.0001010091743119266" departSpeed="max" departPos="base" departLane="best" />
  <flow id="flow_201950247#7_-22724699#1" from="201950247#7" to="-22724699#1" begin="0" end="10000" probability="0.0001010091743119266" departSpeed="max" departPos="base" departLane="best" />
  <flow id="flow_24634518#1_18809672#2" from="24634518#1" to="18809672#2" begin="0" end="10000" probability="0.0001010091743119266" departSpeed="max" departPos="base" departLane="best" />
  <flow id="flow_25145011#1_176550246" from="25145011#1" to="176550246" begin="0" end="10000" probability="0.0001010091743119266" departSpeed="max" departPos="base" departLane="best" />
  <flow id="flow_-104010328_-28111977#2" from="-104010328" to="-28111977#2" begin="0" end="10000" probability="0.0001010091743119266" departSpeed="max" departPos="base" departLane="best" />
  <flow id="flow_-129379922_36962701#1" from="-129379922" to="36962701#1" begin="0" end="10000" probability="0.0001010091743119266" departSpeed="max" departPos="base" departLane="best" />
  <flow id="flow_-26677416#3_-18809672#1" from="-26677416#3" to="-18809672#1" begin="0" end="10000" probability="0.0001010091743119266" departSpeed="max" departPos="base" departLane="best" />
  <flow id="flow_285716192#0_399835085#1" from="285716192#0" to="399835085#1" begin="0" end="10000" probability="0.0001010091743119266" departSpeed="max" departPos="base" departLane="best" />
  <flow id="flow_-201238718#1_137132998" from="-201238718#1" to="137132998" begin="0" end="10000" probability="0.0001010091743119266" departSpeed="max" departPos="base" departLane="best" />
  <flow id="flow_-18813598#7_24693977#0" from="-18813598#7" to="24693977#0" begin="0" end="10000" probability="0.0001010091743119266" departSpeed="max" departPos="base" departLane="best" />
  <flow id="flow_24634521#1_-224251774#1" from="24634521#1" to="-224251774#1" begin="0" end="10000" probability="0.0001010091743119266" departSpeed="max" departPos="base" departLane="best" />
  <flow id="flow_128361109#1_201089420#0" from="128361109#1" to="201089420#0" begin="0" end="10000" probability="0.0001010091743119266" departSpeed="max" departPos="base" departLane="best" />
  <flow id="flow_-25145012#6_30482615#1" from="-25145012#6" to="30482615#1" begin="0" end="10000" probability="0.0001010091743119266" departSpeed="max" departPos="base" departLane="best" />
  <flow id="flow_-4942389#0_-24634510#8" from="-4942389#0" to="-24634510#8" begin="0" end="10000" probability="0.0001010091743119266" departSpeed="max" departPos="base" departLane="best" />
  <flow id="flow_173203413#0_24634510#7" from="173203413#0" to="24634510#7" begin="0" end="10000" probability="0.0001010091743119266" departSpeed="max" departPos="base" departLane="best" />
  <flow id="flow_-24634506#2_-26677539" from="-24634506#2" to="-26677539" begin="0" end="10000" probability="0.0001010091743119266" departSpeed="max" departPos="base" departLane="best" />
  <flow id="flow_653473569#1_22690205#0" from="653473569#1" to="22690205#0" begin="0" end="10000" probability="0.0001010091743119266" departSpeed="max" departPos="base" departLane="best" />
  <flow id="flow_-653473568#0_170018165#0" from="-653473568#0" to="170018165#0" begin="0" end="10000" probability="0.0001010091743119266" departSpeed="max" departPos="base" departLane="best" />
  <flow id="flow_-201963533#1.145_-24634517#3" from="-201963533#1.145" to="-24634517#3" begin="0" end="10000" probability="0.0001010091743119266" departSpeed="max" departPos="base" departLane="best" />
  <flow id="flow_-286646456#0_201238729#3" from="-286646456#0" to="201238729#3" begin="0" end="10000" probability="0.0001010091743119266" departSpeed="max" departPos="base" departLane="best" />
  <flow id="flow_-24634517#3_-24634517#16" from="-24634517#3" to="-24634517#16" begin="0" end="10000" probability="0.0001010091743119266" departSpeed="max" departPos="base" departLane="best" />
  <flow id="flow_-18813598#8_201963537#1" from="-18813598#8" to="201963537#1" begin="0" end="10000" probability="0.0001010091743119266" departSpeed="max" departPos="base" departLane="best" />
  <flow id="flow_28111977#1_-201089420#1" from="28111977#1" to="-201089420#1" begin="0" end="10000" probability="0.0001010091743119266" departSpeed="max" departPos="base" departLane="best" />
  <flow id="flow_-24634518#2_22724699#7" from="-24634518#2" to="22724699#7" begin="0" end="10000" probability="0.0001010091743119266" departSpeed="max" departPos="base" departLane="best" />
  <flow id="flow_-24634510#8_-224892361#1" from="-24634510#8" to="-224892361#1" begin="0" end="10000" probability="0.0001010091743119266" departSpeed="max" departPos="base" departLane="best" />
  <flow id="flow_32999435_201201953#12" from="32999435" to="201201953#12" begin="0" end="10000" probability="0.0001010091743119266" departSpeed="max" departPos="base" departLane="best" />
  <flow id="flow_124812857#0_25145013#1" from="124812857#0" to="25145013#1" begin="0" end="10000" probability="0.0001010091743119266" departSpeed="max" departPos="base" departLane="best" />
  <flow id="flow_25187895#0_-24634414#3" from="25187895#0" to="-24634414#3" begin="0" end="10000" probability="0.0001010091743119266" departSpeed="max" departPos="base" departLane="best" />
  <flow id="flow_-201950247#7_-653473569#1" from="-201950247#7" to="-653473569#1" begin="0" end="10000" probability="0.0001010091743119266" departSpeed="max" departPos="base" departLane="best" />
  <flow id="flow_-4942389#1_129379918#0" from="-4942389#1" to="129379918#0" begin="0" end="10000" probability="0.0001010091743119266" departSpeed="max" departPos="base" departLane="best" />
  <flow id="flow_24634506#2_23166741#2" from="24634506#2" to="23166741#2" begin="0" end="10000" probability="0.0001010091743119266" departSpeed="max" departPos="base" departLane="best" />
  <flow id="flow_53396619#6_-201950250#0" from="53396619#6" to="-201950250#0" begin="0" end="10000" probability="0.0001010091743119266" departSpeed="max" departPos="base" departLane="best" />
  <flow id="flow_28111977#10_-25145012#0" from="28111977#10" to="-25145012#0" begin="0" end="10000" probability="0.0001010091743119266" departSpeed="max" departPos="base" departLane="best" />
  <flow id="flow_-24634414#2_10427692#3" from="-24634414#2" to="10427692#3" begin="0" end="10000" probability="0.0001010091743119266" departSpeed="max" departPos="base" departLane="best" />
  <flow id="flow_-447569998#1_-25190140#2" from="-447569998#1" to="-25190140#2" begin="0" end="10000" probability="0.0001010091743119266" departSpeed="max" departPos="base" departLane="best" />
  <flow id="flow_-25117417#0_32978638#0" from="-25117417#0" to="32978638#0" begin="0" end="10000" probability="0.0001010091743119266" departSpeed="max" departPos="base" departLane="best" />
  <flow id="flow_-653473569#2_28319300#3" from="-653473569#2" to="28319300#3" begin="0" end="10000" probability="0.0001010091743119266" departSpeed="max" departPos="base" departLane="best" />
  <flow id="flow_18809672#0_-170018165#2.210" from="18809672#0" to="-170018165#2.210" begin="0" end="10000" probability="0.0001010091743119266" departSpeed="max" departPos="base" departLane="best" />
  <flow id="flow_653473569#5_26677540#2" from="653473569#5" to="26677540#2" begin="0" end="10000" probability="0.0001010091743119266" departSpeed="max" departPos="base" departLane="best" />
  <flow id="flow_26677540#1_-23436553#1" from="26677540#1" to="-23436553#1" begin="0" end="10000" probability="0.0001010091743119266" departSpeed="max" departPos="base" departLane="best" />
  <flow id="flow_129379921#1_-24634513#6" from="129379921#1" to="-24634513#6" begin="0" end="10000" probability="0.0001010091743119266" departSpeed="max" departPos="base" departLane="best" />
  <flow id="flow_-379510292_-18809672#1" from="-379510292" to="-18809672#1" begin="0" end="10000" probability="0.0001010091743119266" departSpeed="max" departPos="base" departLane="best" />
  <flow id="flow_-32395288#1_54169231#1" from="-32395288#1" to="54169231#1" begin="0" end="10000" probability="0.0001010091743119266" departSpeed="max" departPos="base" departLane="best" />
  <flow id="flow_-25145013#0_25145013#0" from="-25145013#0" to="25145013#0" begin="0" end="10000" probability="0.0001010091743119266" departSpeed="max" departPos="base" departLane="best" />
  <flow id="flow_10425609#1_-54169231#2" from="10425609#1" to="-54169231#2" begin="0" end="10000" probability="0.0001010091743119266" departSpeed="max" departPos="base" departLane="best" />
  <flow id="flow_40888351#0_653473569#2" from="40888351#0" to="653473569#2" begin="0" end="10000" probability="0.0001010091743119266" departSpeed="max" departPos="base" departLane="best" />
  <flow id="flow_18809672#7_24634506#2" from="18809672#7" to="24634506#2" begin="0" end="10000" probability="0.0001010091743119266" departSpeed="max" departPos="base" departLane="best" />
  <flow id="flow_-22724699#1_-26677214#4" from="-22724699#1" to="-26677214#4" begin="0" end="10000" probability="0.0001010091743119266" departSpeed="max" departPos="base" departLane="best" />
  <flow id="flow_4942389#0_201238719#0" from="4942389#0" to="201238719#0" begin="0" end="10000" probability="0.0001010091743119266" departSpeed="max" departPos="base" departLane="best" />
  <flow id="flow_-174800513_201238726#1" from="-174800513" to="201238726#1" begin="0" end="10000" probability="0.0001010091743119266" departSpeed="max" departPos="base" departLane="best" />
  <flow id="flow_-22724699#2_40888360#0" from="-22724699#2" to="40888360#0" begin="0" end="10000" probability="0.0001010091743119266" departSpeed="max" departPos="base" departLane="best" />
  <flow id="flow_-201201945#2_-24634414#0" from="-201201945#2" to="-24634414#0" begin="0" end="10000" probability="0.0001010091743119266" departSpeed="max" departPos="base" departLane="best" />
  <flow id="flow_201238726#0_233675413#0" from="201238726#0" to="233675413#0" begin="0" end="10000" probability="0.0001010091743119266" departSpeed="max" departPos="base" departLane="best" />
  <flow id="flow_-24634518#0_-201963533#1.145" from="-24634518#0" to="-201963533#1.145" begin="0" end="10000" probability="0.0001010091743119266" departSpeed="max" departPos="base" departLane="best" />
  <flow id="flow_315358242#3_-25145011#0" from="315358242#3" to="-25145011#0" begin="0" end="10000" probability="0.0001010091743119266" departSpeed="max" departPos="base" departLane="best" />
  <flow id="flow_201238726#0_201963522#3" from="201238726#0" to="201963522#3" begin="0" end="10000" probability="0.0001010091743119266" departSpeed="max" departPos="base" departLane="best" />
  <flow id="flow_-41203918#1_201238726#1" from="-41203918#1" to="201238726#1" begin="0" end="10000" probability="0.0001010091743119266" departSpeed="max" departPos="base" departLane="best" />
  <flow id="flow_168702039#1_37681425#5" from="168702039#1" to="37681425#5" begin="0" end="10000" probability="0.0001010091743119266" departSpeed="max" departPos="base" departLane="best" />
  <flow id="flow_-24634508_24634506#0" from="-24634508" to="24634506#0" begin="0" end="10000" probability="0.0001010091743119266" departSpeed="max" departPos="base" departLane="best" />
  <flow id="flow_-24634518#2_-379897806" from="-24634518#2" to="-379897806" begin="0" end="10000" probability="0.0001010091743119266" departSpeed="max" departPos="base" departLane="best" />
  <flow id="flow_22716072#4_-26677216#1" from="22716072#4" to="-26677216#1" begin="0" end="10000" probability="0.0001010091743119266" departSpeed="max" departPos="base" departLane="best" />
  <flow id="flow_-26677540#2_24634518#0" from="-26677540#2" to="24634518#0" begin="0" end="10000" probability="0.0001010091743119266" departSpeed="max" departPos="base" departLane="best" />
  <flow id="flow_-201089420#1_120125554" from="-201089420#1" to="120125554" begin="0" end="10000" probability="0.0001010091743119266" departSpeed="max" departPos="base" departLane="best" />
  <flow id="flow_653473569#3_653473569#2" from="653473569#3" to="653473569#2" begin="0" end="10000" probability="0.0001010091743119266" departSpeed="max" departPos="base" departLane="best" />
  <flow id="flow_-201089423#1_-24634513#5" from="-201089423#1" to="-24634513#5" begin="0" end="10000" probability="0.0002020183486238532" departSpeed="max" departPos="base" departLane="best" />
  <flow id="flow_-25145013#0_37681424#1" from="-25145013#0" to="37681424#1" begin="0" end="10000" probability="0.0001010091743119266" departSpeed="max" departPos="base" departLane="best" />
  <flow id="flow_286646456#1_315358242#3" from="286646456#1" to="315358242#3" begin="0" end="10000" probability="0.0001010091743119266" departSpeed="max" departPos="base" departLane="best" />
  <flow id="flow_-31860333#1_-22879845" from="-31860333#1" to="-22879845" begin="0" end="10000" probability="0.0001010091743119266" departSpeed="max" departPos="base" departLane="best" />
  <flow id="flow_26677216#1_24634414#1" from="26677216#1" to="24634414#1" begin="0" end="10000" probability="0.0001010091743119266" departSpeed="max" departPos="base" departLane="best" />
  <flow id="flow_201950250#0_54169231#2" from="201950250#0" to="54169231#2" begin="0" end="10000" probability="0.0001010091743119266" departSpeed="max" departPos="base" departLane="best" />
  <flow id="flow_224892339#0_-10427692#6" from="224892339#0" to="-10427692#6" begin="0" end="10000" probability="0.0001010091743119266" departSpeed="max" departPos="base" departLane="best" />
  <flow id="flow_26642362#1_-26677216#0" from="26642362#1" to="-26677216#0" begin="0" end="10000" probability="0.0001010091743119266" departSpeed="max" departPos="base" departLane="best" />
  <flow id="flow_22690206#0_386687235" from="22690206#0" to="386687235" begin="0" end="10000" probability="0.0001010091743119266" departSpeed="max" departPos="base" departLane="best" />
  <flow id="flow_-224892361#1_-201963522#9" from="-224892361#1" to="-201963522#9" begin="0" end="10000" probability="0.0001010091743119266" departSpeed="max" departPos="base" departLane="best" />
  <flow id="flow_-201950263#6_201089423#2" from="-201950263#6" to="201089423#2" begin="0" end="10000" probability="0.0001010091743119266" departSpeed="max" departPos="base" departLane="best" />
  <flow id="flow_-25145014#3_201950263#0" from="-25145014#3" to="201950263#0" begin="0" end="10000" probability="0.0001010091743119266" departSpeed="max" departPos="base" departLane="best" />
  <flow id="flow_24634414#3_-24634509#7" from="24634414#3" to="-24634509#7" begin="0" end="10000" probability="0.0001010091743119266" departSpeed="max" departPos="base" departLane="best" />
  <flow id="flow_201963522#6_-25145014#3" from="201963522#6" to="-25145014#3" begin="0" end="10000" probability="0.0001010091743119266" departSpeed="max" departPos="base" departLane="best" />
  <flow id="flow_26677539_-201950247#4" from="26677539" to="-201950247#4" begin="0" end="10000" probability="0.0001010091743119266" departSpeed="max" departPos="base" departLane="best" />
  <flow id="flow_-4942389#1_-25187896" from="-4942389#1" to="-25187896" begin="0" end="10000" probability="0.0001010091743119266" departSpeed="max" departPos="base" departLane="best" />
  <flow id="flow_-10427692#2_25145011#0" from="-10427692#2" to="25145011#0" begin="0" end="10000" probability="0.0001010091743119266" departSpeed="max" departPos="base" departLane="best" />
  <flow id="flow_201963533#4_-25145014#1" from="201963533#4" to="-25145014#1" begin="0" end="10000" probability="0.0001010091743119266" departSpeed="max" departPos="base" departLane="best" />
  <flow id="flow_24634510#9_201089423#0" from="24634510#9" to="201089423#0" begin="0" end="10000" probability="0.0001010091743119266" departSpeed="max" departPos="base" departLane="best" />
  <flow id="flow_-53396619#4_-10427692#7" from="-53396619#4" to="-10427692#7" begin="0" end="10000" probability="0.0001010091743119266" departSpeed="max" departPos="base" departLane="best" />
  <flow id="flow_-201089423#2_315358248#0" from="-201089423#2" to="315358248#0" begin="0" end="10000" probability="0.0001010091743119266" departSpeed="max" departPos="base" departLane="best" />
  <flow id="flow_315358253#2_18813598#0" from="315358253#2" to="18813598#0" begin="0" end="10000" probability="0.0001010091743119266" departSpeed="max" departPos="base" departLane="best" />
  <flow id="flow_26677216#2_201238726#0.117" from="26677216#2" to="201238726#0.117" begin="0" end="10000" probability="0.0001010091743119266" departSpeed="max" departPos="base" departLane="best" />
  <flow id="flow_-22716069#1_-224251774#0" from="-22716069#1" to="-224251774#0" begin="0" end="10000" probability="0.0001010091743119266" departSpeed="max" departPos="base" departLane="best" />
  <flow id="flow_-26677416#7_31860333#1" from="-26677416#7" to="31860333#1" begin="0" end="10000" probability="0.0001010091743119266" departSpeed="max" departPos="base" departLane="best" />
  <flow id="flow_25145014#3_28319300#0" from="25145014#3" to="28319300#0" begin="0" end="10000" probability="0.0001010091743119266" departSpeed="max" departPos="base" departLane="best" />
  <flow id="flow_315358251#1_-24634510#6" from="315358251#1" to="-24634510#6" begin="0" end="10000" probability="0.0001010091743119266" departSpeed="max" departPos="base" departLane="best" />
  <flow id="flow_-25117417#0_-201950259#3" from="-25117417#0" to="-201950259#3" begin="0" end="10000" probability="0.0001010091743119266" departSpeed="max" departPos="base" departLane="best" />
  <flow id="flow_-40888351#0_201963522#4" from="-40888351#0" to="201963522#4" begin="0" end="10000" probability="0.0001010091743119266" departSpeed="max" departPos="base" departLane="best" />
  <flow id="flow_-22724699#1_37386279" from="-22724699#1" to="37386279" begin="0" end="10000" probability="0.0001010091743119266" departSpeed="max" departPos="base" departLane="best" />
  <flow id="flow_28111977#4_51857518#1" from="28111977#4" to="51857518#1" begin="0" end="10000" probability="0.0001010091743119266" departSpeed="max" departPos="base" departLane="best" />
  <flow id="flow_25190140#1_315358246" from="25190140#1" to="315358246" begin="0" end="10000" probability="0.0001010091743119266" departSpeed="max" departPos="base" departLane="best" />
  <flow id="flow_-136728347#4_24634516#0" from="-136728347#4" to="24634516#0" begin="0" end="10000" probability="0.0001010091743119266" departSpeed="max" departPos="base" departLane="best" />
  <flow id="flow_-28111977#7_37386279" from="-28111977#7" to="37386279" begin="0" end="10000" probability="0.0001010091743119266" departSpeed="max" departPos="base" departLane="best" />
  <flow id="flow_25190140#1_-25149001#4" from="25190140#1" to="-25149001#4" begin="0" end="10000" probability="0.0001010091743119266" departSpeed="max" departPos="base" departLane="best" />
  <flow id="flow_25145012#6_-201963522#1" from="25145012#6" to="-201963522#1" begin="0" end="10000" probability="0.0001010091743119266" departSpeed="max" departPos="base" departLane="best" />
  <flow id="flow_28319300#0_28111977#9" from="28319300#0" to="28111977#9" begin="0" end="10000" probability="0.0001010091743119266" departSpeed="max" departPos="base" departLane="best" />
  <flow id="flow_-24634516#2_26677214#3" from="-24634516#2" to="26677214#3" begin="0" end="10000" probability="0.0001010091743119266" departSpeed="max" departPos="base" departLane="best" />
  <flow id="flow_10427692#4_-26677416#1" from="10427692#4" to="-26677416#1" begin="0" end="10000" probability="0.0001010091743119266" departSpeed="max" departPos="base" departLane="best" />
  <flow id="flow_25145014#3_-24634517#7" from="25145014#3" to="-24634517#7" begin="0" end="10000" probability="0.0001010091743119266" departSpeed="max" departPos="base" departLane="best" />
  <flow id="flow_-136436468#2_-24634414#5" from="-136436468#2" to="-24634414#5" begin="0" end="10000" probability="0.0001010091743119266" departSpeed="max" departPos="base" departLane="best" />