<?xml version="1.0" encoding="UTF-8"?>

<!-- generated on 2024-06-01 12:26:44.702482 by randomTrips.py UNKNOWN
<configuration>
    <net-file value="data/ingolstadt21_resco_train/ingolstadt21.net.xml"/>
    <output-trip-file value="data/ingolstadt21_resco_train/random_trips.trips.xml"/>
    <validate value="True"/>
    <end value="10000.0"/>
    <period value="0.95"/>
</configuration>
-->

<!-- generated on 2024-06-01 12:26:44 by Eclipse SUMO duarouter Version 1.19.0
<configuration xmlns:xsi="http://www.w3.org/2001/XMLSchema-instance" xsi:noNamespaceSchemaLocation="http://sumo.dlr.de/xsd/duarouterConfiguration.xsd">

    <input>
        <net-file value="data/ingolstadt21_resco_train/ingolstadt21.net.xml"/>
        <route-files value="data/ingolstadt21_resco_train/random_trips.trips.xml"/>
    </input>

    <output>
        <output-file value="data/ingolstadt21_resco_train/random_trips.trips.xml.tmp"/>
        <alternatives-output value="NUL"/>
        <write-trips value="true"/>
    </output>

    <time>
        <begin value="0"/>
        <end value="10000.0"/>
    </time>

    <report>
        <no-warnings value="true"/>
        <ignore-errors value="true"/>
        <no-step-log value="true"/>
    </report>

</configuration>
-->

<routes xmlns:xsi="http://www.w3.org/2001/XMLSchema-instance" xsi:noNamespaceSchemaLocation="http://sumo.dlr.de/xsd/routes_file.xsd">
    <trip id="0" depart="0.00" from="201963533#5" to="-136436468#0"/>
    <trip id="2" depart="1.90" from="24634510#1" to="233675413#1"/>
    <trip id="3" depart="2.85" from="315358245.27" to="-201238726#0"/>
    <trip id="5" depart="4.75" from="-24634514#1" to="160314346#1"/>
    <trip id="6" depart="5.70" from="-137454133#0" to="-24634506#2"/>
    <trip id="7" depart="6.65" from="224251774#0" to="18813598#0"/>
    <trip id="8" depart="7.60" from="-24634516#0" to="201238730"/>
    <trip id="9" depart="8.55" from="25187896" to="-10427692#5"/>
    <trip id="10" depart="9.50" from="25187893" to="24634413#0"/>
    <trip id="11" depart="10.45" from="-286646456#2" to="-22724699#2"/>
    <trip id="13" depart="12.35" from="-201950247#0" to="-201950247#8"/>
    <trip id="14" depart="13.30" from="26677540#0" to="201950259#4"/>
    <trip id="15" depart="14.25" from="25187895#0" to="24634510#7"/>
    <trip id="16" depart="15.20" from="172488482#0" to="51857517#0"/>
    <trip id="17" depart="16.15" from="-32395288#1" to="201089423#0"/>
    <trip id="18" depart="17.10" from="26677214#4" to="201963522#2"/>
    <trip id="19" depart="18.05" from="28111977#10" to="201238718#1"/>
    <trip id="20" depart="19.00" from="24608844" to="-164078530"/>
    <trip id="21" depart="19.95" from="-24634517#18" to="-26642363"/>
    <trip id="22" depart="20.90" from="-201201945#2" to="-24634518#2"/>
    <trip id="23" depart="21.85" from="-201950250#1" to="-25190140#1"/>
    <trip id="24" depart="22.80" from="201963533#1" to="-315358257#2"/>
    <trip id="25" depart="23.75" from="-31860333#1" to="-24634510#5"/>
    <trip id="27" depart="25.65" from="204588664#0" to="201956811#0"/>
    <trip id="28" depart="26.60" from="-23436553#3" to="24634510#7"/>
    <trip id="29" depart="27.55" from="-233675413#2" to="-32395288#3"/>
    <trip id="30" depart="28.50" from="612075153#0" to="224251774#1"/>
    <trip id="31" depart="29.45" from="18813598#0" to="23436553#2"/>
    <trip id="32" depart="30.40" from="26677416#4" to="25145012#2"/>
    <trip id="33" depart="31.35" from="-24634517#19" to="-160314345#0"/>
    <trip id="34" depart="32.30" from="-26677540#2" to="-25149001#5"/>
    <trip id="35" depart="33.25" from="-24634510#18" to="386687242"/>
    <trip id="36" depart="34.20" from="285549250#0" to="-26677540#1"/>
    <trip id="37" depart="35.15" from="224892361#1" to="-379897806"/>
    <trip id="38" depart="36.10" from="31860333#2" to="120125554"/>
    <trip id="39" depart="37.05" from="-25145012#6" to="-25145011#0"/>
    <trip id="40" depart="38.00" from="18813598#8" to="-25145014#2"/>
    <trip id="41" depart="38.95" from="201201953#12" to="31860333#0"/>
    <trip id="42" depart="39.90" from="-37681425#6" to="-24634517#12"/>
    <trip id="44" depart="41.80" from="-201238726#1" to="-170018165#0"/>
    <trip id="45" depart="42.75" from="-201963522#1" to="201963533#5"/>
    <trip id="46" depart="43.70" from="25145014#0" to="-54169231#1"/>
    <trip id="47" depart="44.65" from="-18809672#7" to="-32395414#1"/>
    <trip id="48" depart="45.60" from="653473569#1" to="175770996#0"/>
    <trip id="49" depart="46.55" from="4942389#1" to="28319300#3"/>
    <trip id="50" depart="47.50" from="-120125554" to="24634508"/>
    <trip id="51" depart="48.45" from="23166741#0" to="176550249#4"/>
    <trip id="52" depart="49.40" from="-25145013#1" to="224251774#1"/>
    <trip id="53" depart="50.35" from="-201963522#2" to="-653473569#5"/>
    <trip id="54" depart="51.30" from="10425609#0" to="40888354#0"/>
    <trip id="55" depart="52.25" from="285549250#0" to="-25145014#2"/>
    <trip id="58" depart="55.10" from="-26677214#4" to="224251774#0"/>
    <trip id="59" depart="56.05" from="201950247#7" to="-22724699#1"/>
    <trip id="60" depart="57.00" from="24634518#1" to="18809672#2"/>
    <trip id="61" depart="57.95" from="25145011#1" to="176550246"/>
    <trip id="62" depart="58.90" from="-104010328" to="-28111977#2"/>
    <trip id="63" depart="59.85" from="-129379922" to="36962701#1"/>
    <trip id="65" depart="61.75" from="-26677416#3" to="-18809672#1"/>
    <trip id="66" depart="62.70" from="285716192#0" to="399835085#1"/>
    <trip id="67" depart="63.65" from="-201238718#1" to="137132998"/>
    <trip id="68" depart="64.60" from="-18813598#7" to="24693977#0"/>
    <trip id="69" depart="65.55" from="24634521#1" to="-224251774#1"/>
    <trip id="70" depart="66.50" from="128361109#1" to="201089420#0"/>
    <trip id="71" depart="67.45" from="-25145012#6" to="30482615#1"/>
    <trip id="72" depart="68.40" from="-4942389#0" to="-24634510#8"/>
    <trip id="73" depart="69.35" from="173203413#0" to="24634510#7"/>
    <trip id="74" depart="70.30" from="-24634506#2" to="-26677539"/>
    <trip id="75" depart="71.25" from="653473569#1" to="22690205#0"/>
    <trip id="76" depart="72.20" from="-653473568#0" to="170018165#0"/>
    <trip id="77" depart="73.15" from="-201963533#1.145" to="-24634517#3"/>
    <trip id="78" depart="74.10" from="-286646456#0" to="201238729#3"/>
    <trip id="79" depart="75.05" from="-24634517#3" to="-24634517#16"/>
    <trip id="80" depart="76.00" from="-18813598#8" to="201963537#1"/>
    <trip id="82" depart="77.90" from="28111977#1" to="-201089420#1"/>
    <trip id="83" depart="78.85" from="-24634518#2" to="22724699#7"/>
    <trip id="84" depart="79.80" from="-24634510#8" to="-224892361#1"/>
    <trip id="85" depart="80.75" from="32999435" to="201201953#12"/>
    <trip id="86" depart="81.70" from="124812857#0" to="25145013#1"/>
    <trip id="87" depart="82.65" from="25187895#0" to="-24634414#3"/>
    <trip id="88" depart="83.60" from="-201950247#7" to="-653473569#1"/>
    <trip id="89" depart="84.55" from="-4942389#1" to="129379918#0"/>
    <trip id="90" depart="85.50" from="24634506#2" to="23166741#2"/>
    <trip id="91" depart="86.45" from="53396619#6" to="-201950250#0"/>
    <trip id="93" depart="88.35" from="28111977#10" to="-25145012#0"/>
    <trip id="94" depart="89.30" from="-24634414#2" to="10427692#3"/>
    <trip id="95" depart="90.25" from="-447569998#1" to="-25190140#2"/>
    <trip id="96" depart="91.20" from="-25117417#0" to="32978638#0"/>
    <trip id="97" depart="92.15" from="-653473569#2" to="28319300#3"/>
    <trip id="98" depart="93.10" from="18809672#0" to="-170018165#2.210"/>
    <trip id="99" depart="94.05" from="653473569#5" to="26677540#2"/>
    <trip id="101" depart="95.95" from="26677540#1" to="-23436553#1"/>
    <trip id="102" depart="96.90" from="129379921#1" to="-24634513#6"/>
    <trip id="103" depart="97.85" from="-379510292" to="-18809672#1"/>
    <trip id="104" depart="98.80" from="-32395288#1" to="54169231#1"/>
    <trip id="105" depart="99.75" from="-25145013#0" to="25145013#0"/>
    <trip id="106" depart="100.70" from="10425609#1" to="-54169231#2"/>
    <trip id="107" depart="101.65" from="40888351#0" to="653473569#2"/>
    <trip id="108" depart="102.60" from="18809672#7" to="24634506#2"/>
    <trip id="109" depart="103.55" from="-22724699#1" to="-26677214#4"/>
    <trip id="110" depart="104.50" from="4942389#0" to="201238719#0"/>
    <trip id="112" depart="106.40" from="-174800513" to="201238726#1"/>
    <trip id="114" depart="108.30" from="-22724699#2" to="40888360#0"/>
    <trip id="115" depart="109.25" from="-201201945#2" to="-24634414#0"/>
    <trip id="116" depart="110.20" from="201238726#0" to="233675413#0"/>
    <trip id="117" depart="111.15" from="-24634518#0" to="-201963533#1.145"/>
    <trip id="118" depart="112.10" from="315358242#3" to="-25145011#0"/>
    <trip id="119" depart="113.05" from="201238726#0" to="201963522#3"/>
    <trip id="120" depart="114.00" from="-41203918#1" to="201238726#1"/>
    <trip id="121" depart="114.95" from="168702039#1" to="37681425#5"/>
    <trip id="122" depart="115.90" from="-24634508" to="24634506#0"/>
    <trip id="123" depart="116.85" from="-24634518#2" to="-379897806"/>
    <trip id="124" depart="117.80" from="22716072#4" to="-26677216#1"/>
    <trip id="125" depart="118.75" from="-26677540#2" to="24634518#0"/>
    <trip id="126" depart="119.70" from="-201089420#1" to="120125554"/>
    <trip id="127" depart="120.65" from="653473569#3" to="653473569#2"/>
    <trip id="128" depart="121.60" from="-201089423#1" to="-24634513#5"/>
    <trip id="129" depart="122.55" from="-25145013#0" to="37681424#1"/>
    <trip id="130" depart="123.50" from="286646456#1" to="315358242#3"/>
    <trip id="131" depart="124.45" from="-31860333#1" to="-22879845"/>
    <trip id="132" depart="125.40" from="26677216#1" to="24634414#1"/>
    <trip id="133" depart="126.35" from="201950250#0" to="54169231#2"/>
    <trip id="134" depart="127.30" from="224892339#0" to="-10427692#6"/>
    <trip id="135" depart="128.25" from="26642362#1" to="-26677216#0"/>
    <trip id="136" depart="129.20" from="22690206#0" to="386687235"/>
    <trip id="137" depart="130.15" from="-224892361#1" to="-201963522#9"/>
    <trip id="138" depart="131.10" from="-201950263#6" to="201089423#2"/>
    <trip id="139" depart="132.05" from="-25145014#3" to="201950263#0"/>
    <trip id="140" depart="133.00" from="24634414#3" to="-24634509#7"/>
    <trip id="141" depart="133.95" from="201963522#6" to="-25145014#3"/>
    <trip id="143" depart="135.85" from="26677539" to="-201950247#4"/>
    <trip id="144" depart="136.80" from="-4942389#1" to="-25187896"/>
    <trip id="145" depart="137.75" from="-10427692#2" to="25145011#0"/>
    <trip id="146" depart="138.70" from="201963533#4" to="-25145014#1"/>
    <trip id="147" depart="139.65" from="24634510#9" to="201089423#0"/>
    <trip id="148" depart="140.60" from="-53396619#4" to="-10427692#7"/>
    <trip id="149" depart="141.55" from="-201089423#2" to="315358248#0"/>
    <trip id="150" depart="142.50" from="315358253#2" to="18813598#0"/>
    <trip id="151" depart="143.45" from="26677216#2" to="201238726#0.117"/>
    <trip id="152" depart="144.40" from="-22716069#1" to="-224251774#0"/>
    <trip id="153" depart="145.35" from="-26677416#7" to="31860333#1"/>
    <trip id="154" depart="146.30" from="25145014#3" to="28319300#0"/>
    <trip id="155" depart="147.25" from="315358251#1" to="-24634510#6"/>
    <trip id="156" depart="148.20" from="-25117417#0" to="-201950259#3"/>
    <trip id="158" depart="150.10" from="-40888351#0" to="201963522#4"/>
    <trip id="159" depart="151.05" from="-22724699#1" to="37386279"/>
    <trip id="160" depart="152.00" from="28111977#4" to="51857518#1"/>
    <trip id="161" depart="152.95" from="25190140#1" to="315358246"/>
    <trip id="162" depart="153.90" from="-136728347#4" to="24634516#0"/>
    <trip id="163" depart="154.85" from="-28111977#7" to="37386279"/>
    <trip id="165" depart="156.75" from="25190140#1" to="-25149001#4"/>
    <trip id="166" depart="157.70" from="25145012#6" to="-201963522#1"/>
    <trip id="167" depart="158.65" from="28319300#0" to="28111977#9"/>
    <trip id="168" depart="159.60" from="-24634516#2" to="26677214#3"/>
    <trip id="169" depart="160.55" from="10427692#4" to="-26677416#1"/>
    <trip id="170" depart="161.50" from="25145014#3" to="-24634517#7"/>
    <trip id="171" depart="162.45" from="-136436468#2" to="-24634414#5"/>
    <trip id="173" depart="164.35" from="40888360#0" to="-25190140#2"/>
    <trip id="174" depart="165.30" from="201963537#1" to="-40888350"/>
    <trip id="175" depart="166.25" from="53396619#3" to="176550249#4"/>
    <trip id="176" depart="167.20" from="37681424#0" to="-201963522#9"/>
    <trip id="178" depart="169.10" from="40888354#1" to="-25145014#4"/>
    <trip id="179" depart="170.05" from="-201963522#0" to="-653473569#5"/>
    <trip id="180" depart="171.00" from="24634506#1" to="-26677540#1"/>
    <trip id="181" depart="171.95" from="201950247#5" to="168702039#1"/>
    <trip id="182" depart="172.90" from="-32395361#1" to="201238718#0"/>
    <trip id="183" depart="173.85" from="-25145011#0" to="24634414#5"/>
    <trip id="184" depart="174.80" from="-10427692#1" to="32999434#0"/>
    <trip id="185" depart="175.75" from="173177776#0" to="24634507"/>
    <trip id="186" depart="176.70" from="24634510#9" to="22879845"/>
    <trip id="187" depart="177.65" from="-315358257#0.26" to="-18813598#8"/>
    <trip id="188" depart="178.60" from="22690206#0" to="-28111977#7"/>
    <trip id="189" depart="179.55" from="-26677540#0" to="28111977#1"/>
    <trip id="190" depart="180.50" from="24634414#4" to="-26677216#1"/>
    <trip id="191" depart="181.45" from="-26677417#0" to="-40888359"/>
    <trip id="192" depart="182.40" from="-379897806" to="-26677214#3"/>
    <trip id="193" depart="183.35" from="-218647954" to="-54169231#0"/>
    <trip id="194" depart="184.30" from="37681424#1" to="233675413#1"/>
    <trip id="195" depart="185.25" from="315358253#1" to="201963522#0"/>
    <trip id="196" depart="186.20" from="-26677216#0" to="18813598#7"/>
    <trip id="197" depart="187.15" from="-104010328" to="-26642362#3"/>
    <trip id="198" depart="188.10" from="-53396619#6" to="201238724"/>
    <trip id="200" depart="190.00" from="-653473569#1" to="-24634513#6"/>
    <trip id="201" depart="190.95" from="124812857#0" to="31860333#3"/>
    <trip id="202" depart="191.90" from="25145014#3" to="-23436553#4"/>
    <trip id="203" depart="192.85" from="-201238718#0" to="168702040#3"/>
    <trip id="204" depart="193.80" from="201963522#5" to="-285549250#1"/>
    <trip id="205" depart="194.75" from="26642362#2" to="24634517#9"/>
    <trip id="206" depart="195.70" from="22716073" to="-24634517#3"/>
    <trip id="207" depart="196.65" from="-24634506#0" to="-136436468#0"/>
    <trip id="208" depart="197.60" from="-24693977#0" to="129379925"/>
    <trip id="209" depart="198.55" from="26677540#2" to="-201089423#2"/>
    <trip id="210" depart="199.50" from="-40888356#6" to="201963535"/>
    <trip id="211" depart="200.45" from="-24634414#5" to="24608846#1"/>
    <trip id="213" depart="202.35" from="224892361#2" to="-10427692#4"/>
    <trip id="214" depart="203.30" from="24634517#13" to="25136986"/>
    <trip id="215" depart="204.25" from="-201950263#10" to="-612075153#0"/>
    <trip id="216" depart="205.20" from="-23525483#6" to="40888356#0"/>
    <trip id="217" depart="206.15" from="160314351#0" to="-170018165#2.210"/>
    <trip id="218" depart="207.10" from="-25117417#0" to="28111977#10"/>
    <trip id="219" depart="208.05" from="10427692#0" to="25187895#1"/>
    <trip id="220" depart="209.00" from="22716069#1" to="612075153#0"/>
    <trip id="221" depart="209.95" from="201238726#0" to="40888351#0"/>
    <trip id="222" depart="210.90" from="315358244" to="201956821#0"/>
    <trip id="223" depart="211.85" from="24634414#4" to="160314346#1"/>
    <trip id="224" depart="212.80" from="26677214#5" to="18813598#7"/>
    <trip id="225" depart="213.75" from="315358250#1" to="24634517#17"/>
    <trip id="226" depart="214.70" from="128361102#0" to="-25145013#1"/>
    <trip id="227" depart="215.65" from="-25117391#1" to="218647954"/>
    <trip id="228" depart="216.60" from="24634521#1" to="170018165#2.175"/>
    <trip id="229" depart="217.55" from="201963522#0" to="-25187895#0"/>
    <trip id="230" depart="218.50" from="-201201945#0.78" to="-26642362#2"/>
    <trip id="231" depart="219.45" from="-25145014#3" to="-26677542#1"/>
    <trip id="232" depart="220.40" from="173203413#0" to="-22690205#2"/>
    <trip id="233" depart="221.35" from="-24634517#5" to="24608846#0"/>
    <trip id="235" depart="223.25" from="-40888351#2" to="18809672#7"/>
    <trip id="236" depart="224.20" from="-40888359" to="-24634510#15"/>
    <trip id="238" depart="226.10" from="201201953#10" to="24608846#1"/>
    <trip id="239" depart="227.05" from="27920078#0" to="25117417#0"/>
    <trip id="240" depart="228.00" from="-32395288#2" to="-10427692#4"/>
    <trip id="241" depart="228.95" from="-315358250#0" to="24634518#1"/>
    <trip id="242" depart="229.90" from="26677542#1" to="40888351#3"/>
    <trip id="243" depart="230.85" from="-41203918#1" to="24634517#4"/>
    <trip id="244" depart="231.80" from="176550249#1" to="201950259#0"/>
    <trip id="245" depart="232.75" from="-24634516#0" to="-24634517#12"/>
    <trip id="247" depart="234.65" from="-28319300#2" to="233675413#3"/>
    <trip id="248" depart="235.60" from="-399835085#0" to="-233675413#8"/>
    <trip id="249" depart="236.55" from="118362731" to="-224251774#0"/>
    <trip id="250" depart="237.50" from="201956820" to="-136728347#4"/>
    <trip id="251" depart="238.45" from="-36962701#1" to="201201950#1"/>
    <trip id="252" depart="239.40" from="-137454133#0" to="224892339#0"/>
    <trip id="253" depart="240.35" from="-224892361#6" to="124812856#1"/>
    <trip id="254" depart="241.30" from="-170018165#2.210" to="-32395288#3"/>
    <trip id="255" depart="242.25" from="-24634510#5" to="-28111977#4"/>
    <trip id="256" depart="243.20" from="24634518#0" to="-32395288#3"/>
    <trip id="257" depart="244.15" from="24634517#17" to="26677539"/>
    <trip id="258" depart="245.10" from="-25122731#1" to="-201201945#8"/>
    <trip id="259" depart="246.05" from="-129379922" to="18809672#2"/>
    <trip id="260" depart="247.00" from="653473569#5" to="-315358248#1"/>
    <trip id="261" depart="247.95" from="224251774#0" to="25145012#6"/>
    <trip id="262" depart="248.90" from="224251774#1" to="24634518#2"/>
    <trip id="263" depart="249.85" from="386687239#0" to="-24634506#2"/>
    <trip id="264" depart="250.80" from="-129379925" to="-22724699#1"/>
    <trip id="265" depart="251.75" from="-218647947#1" to="22724699#7"/>
    <trip id="266" depart="252.70" from="201089423#0" to="-24634516#2"/>
    <trip id="267" depart="253.65" from="23525483#1" to="25117417#1"/>
    <trip id="268" depart="254.60" from="-233675413#8" to="201950263#7"/>
    <trip id="269" depart="255.55" from="24634516#2" to="-201963522#9"/>
    <trip id="270" depart="256.50" from="26642362#3" to="41203918#0"/>
    <trip id="271" depart="257.45" from="-201963522#0" to="-136436468#2"/>
    <trip id="272" depart="258.40" from="-26677539" to="233675413#1"/>
    <trip id="273" depart="259.35" from="40888351#0" to="-393420106#1"/>
    <trip id="274" depart="260.30" from="24634414#1" to="-201201945#0.78"/>
    <trip id="275" depart="261.25" from="233675413#4" to="201963533#4"/>
    <trip id="276" depart="262.20" from="-201950250#2" to="25145011#1"/>
    <trip id="277" depart="263.15" from="26677540#2" to="201950250#1"/>
    <trip id="278" depart="264.10" from="-201963533#1.145" to="54169231#0"/>
    <trip id="279" depart="265.05" from="25145012#2" to="-315358245"/>
    <trip id="280" depart="266.00" from="-53396619#4" to="-31860333#3"/>
    <trip id="281" depart="266.95" from="137685155#0" to="-31395281"/>
    <trip id="282" depart="267.90" from="26677540#2" to="26677216#2"/>
    <trip id="283" depart="268.85" from="-201950263#10" to="40888360#0"/>
    <trip id="284" depart="269.80" from="201963533#0" to="26677416#4"/>
    <trip id="285" depart="270.75" from="24608846#1" to="-83304175#2"/>
    <trip id="286" depart="271.70" from="24634509#1" to="447569997#0"/>
    <trip id="287" depart="272.65" from="-25145014#1" to="26642362#1"/>
    <trip id="288" depart="273.60" from="173177776#0" to="137132996"/>
    <trip id="289" depart="274.55" from="-612075153#0" to="24634510#9"/>
    <trip id="290" depart="275.50" from="-25145014#0" to="28111977#3"/>
    <trip id="291" depart="276.45" from="26677214#5" to="-201238726#0"/>
    <trip id="293" depart="278.35" from="10427692#7" to="201956819#0"/>
    <trip id="295" depart="280.25" from="26677541" to="-24634411"/>
    <trip id="296" depart="281.20" from="-24634510#5" to="25187892"/>
    <trip id="297" depart="282.15" from="-286646456#2" to="315358245.27"/>
    <trip id="298" depart="283.10" from="23525483#7" to="-25187896"/>
    <trip id="299" depart="284.05" from="-10427692#8" to="402600768#0"/>
    <trip id="300" depart="285.00" from="-201238718#1" to="24634507"/>
    <trip id="301" depart="285.95" from="129379925" to="24634521#1"/>
    <trip id="302" depart="286.90" from="233675413#4" to="224892361#2"/>
    <trip id="304" depart="288.80" from="-201950247#4" to="-24634517#17"/>
    <trip id="305" depart="289.75" from="233675413#7" to="-26677416#3"/>
    <trip id="306" depart="290.70" from="201201950#4" to="129379922"/>
    <trip id="307" depart="291.65" from="170018165#1" to="-612075153#1"/>
    <trip id="308" depart="292.60" from="24634516#0" to="-28111977#7"/>
    <trip id="309" depart="293.55" from="24599188#0.94" to="-25187891"/>
    <trip id="310" depart="294.50" from="-25122731#1" to="-201963533#4"/>
    <trip id="311" depart="295.45" from="-24634414#4" to="-201963533#1.145"/>
    <trip id="312" depart="296.40" from="172488482#0" to="24693977#1"/>
    <trip id="313" depart="297.35" from="-24634413#1" to="-24634516#1"/>
    <trip id="314" depart="298.30" from="129379921#0" to="24634510#0"/>
    <trip id="316" depart="300.20" from="-25187896" to="-201950250#2"/>
    <trip id="317" depart="301.15" from="-24634414#5" to="-24634517#7"/>
    <trip id="318" depart="302.10" from="-24608845" to="-129379918#1"/>
    <trip id="319" depart="303.05" from="170425366#0" to="-25187895#0"/>
    <trip id="321" depart="304.95" from="23525483#0" to="-218647954"/>
    <trip id="322" depart="305.90" from="28111977#7" to="137454133#1"/>
    <trip id="323" depart="306.85" from="28319300#0" to="201201953#4"/>
    <trip id="324" depart="307.80" from="120125554" to="104010475#0"/>
    <trip id="325" depart="308.75" from="-24634413#0" to="-170018165#2.210"/>
    <trip id="326" depart="309.70" from="37681425#0" to="129379968"/>
    <trip id="327" depart="310.65" from="26642363" to="-40888351#0"/>
    <trip id="328" depart="311.60" from="-201089423#1" to="201963535"/>
    <trip id="329" depart="312.55" from="-170425366#6" to="-22716072#5"/>
    <trip id="330" depart="313.50" from="201089423#0" to="-26677416#0"/>
    <trip id="331" depart="314.45" from="653473569#0" to="-201963533#1.120"/>
    <trip id="332" depart="315.40" from="24634521#0" to="201950263#7"/>
    <trip id="333" depart="316.35" from="25145013#1" to="-24634517#3"/>
    <trip id="334" depart="317.30" from="164078530" to="10427692#5"/>
    <trip id="335" depart="318.25" from="-653473569#2" to="28319300#0"/>
    <trip id="336" depart="319.20" from="612075153#1" to="-26677416#1"/>
    <trip id="337" depart="320.15" from="201956819#0" to="201956811#0"/>
    <trip id="338" depart="321.10" from="24634510#7" to="402600768#0"/>
    <trip id="339" depart="322.05" from="-24634510#0" to="-24634510#8"/>
    <trip id="340" depart="323.00" from="22690205#0" to="-22879845"/>
    <trip id="341" depart="323.95" from="-23525483#0" to="-201201945#0"/>
    <trip id="342" depart="324.90" from="-10427692#2" to="10427692#5"/>
    <trip id="343" depart="325.85" from="201238724" to="-26676668"/>
    <trip id="344" depart="326.80" from="-24634517#5" to="24634414#4"/>
    <trip id="345" depart="327.75" from="24599188#0.94" to="10427692#7"/>
    <trip id="346" depart="328.70" from="233675413#2" to="32999110#0"/>
    <trip id="347" depart="329.65" from="25145012#7" to="201963533#1"/>
    <trip id="348" depart="330.60" from="22690205#2" to="37681425#5"/>
    <trip id="350" depart="332.50" from="204588664#0" to="32124743"/>
    <trip id="351" depart="333.45" from="26677213#0" to="-201089420#1"/>
    <trip id="352" depart="334.40" from="-233675413#6" to="-26677416#7"/>
    <trip id="353" depart="335.35" from="24634517#1" to="201201953#0"/>
    <trip id="354" depart="336.30" from="-26642362#0" to="-218647947#1"/>
    <trip id="355" depart="337.25" from="233675413#3" to="24634413#1"/>
    <trip id="356" depart="338.20" from="37681425#5" to="160314345#3"/>
    <trip id="357" depart="339.15" from="136436468#1" to="-201201945#7"/>
    <trip id="358" depart="340.10" from="-160314346#0" to="-653473569#2"/>
    <trip id="359" depart="341.05" from="-28111977#0" to="-25145012#1"/>
    <trip id="360" depart="342.00" from="-201238726#1" to="40888443"/>
    <trip id="361" depart="342.95" from="26677216#3" to="201234440"/>
    <trip id="362" depart="343.90" from="386687239#1" to="93386922"/>
    <trip id="363" depart="344.85" from="22716073" to="-25187889"/>
    <trip id="364" depart="345.80" from="-160314346#1" to="24634519"/>
    <trip id="365" depart="346.75" from="124812856#0" to="22690205#3"/>
    <trip id="366" depart="347.70" from="31860333#4" to="-24634411"/>
    <trip id="367" depart="348.65" from="201201953#12" to="202092675"/>
    <trip id="368" depart="349.60" from="136436466" to="-201950247#3"/>
    <trip id="369" depart="350.55" from="-315358242#2" to="-28111977#9"/>
    <trip id="370" depart="351.50" from="22716072#0" to="28111977#8"/>
    <trip id="371" depart="352.45" from="-28111977#5" to="24608845"/>
    <trip id="372" depart="353.40" from="-26642362#0" to="399835085#0"/>
    <trip id="373" depart="354.35" from="25209894#0" to="201089420#0"/>
    <trip id="374" depart="355.30" from="10425609#1" to="-26677540#1"/>
    <trip id="375" depart="356.25" from="-28111977#1" to="4942389#1"/>
    <trip id="376" depart="357.20" from="-399835085#0" to="168702040#3"/>
    <trip id="377" depart="358.15" from="54169231#2" to="22716069#1"/>
    <trip id="379" depart="360.05" from="-24634414#0" to="-315358255#4"/>
    <trip id="380" depart="361.00" from="24634517#6" to="201963533#1"/>
    <trip id="381" depart="361.95" from="24634517#9" to="-24634509#7"/>
    <trip id="382" depart="362.90" from="176550249#4" to="36962701#0"/>
    <trip id="383" depart="363.85" from="-653473568#0" to="24634413#0"/>
    <trip id="384" depart="364.80" from="-201963533#1.145" to="51857517#0"/>
    <trip id="385" depart="365.75" from="201950247#7" to="-24693977#1"/>
    <trip id="386" depart="366.70" from="-22724699#6" to="201089423#0"/>
    <trip id="387" depart="367.65" from="18809672#2" to="-201950247#5"/>
    <trip id="388" depart="368.60" from="653473568#0" to="32395288#2"/>
    <trip id="389" depart="369.55" from="10427692#5" to="-201963533#1"/>
    <trip id="390" depart="370.50" from="26677216#0" to="160314345#2"/>
    <trip id="391" depart="371.45" from="24634414#2" to="164051413"/>
    <trip id="392" depart="372.40" from="-25145014#4" to="26677540#1"/>
    <trip id="394" depart="374.30" from="18809672#0" to="-32395464"/>
    <trip id="395" depart="375.25" from="32124637#1" to="164051413"/>
    <trip id="397" depart="377.15" from="-25187889" to="25145014#3"/>
    <trip id="398" depart="378.10" from="-40888359" to="37681425#5"/>
    <trip id="399" depart="379.05" from="160314345#0" to="26677216#0"/>
    <trip id="400" depart="380.00" from="-25187896" to="-26677214#5"/>
    <trip id="401" depart="380.95" from="201201953#4" to="93386922"/>
    <trip id="402" depart="381.90" from="129379967#0" to="-22716072#5"/>
    <trip id="403" depart="382.85" from="173177776#0" to="-315358244"/>
    <trip id="404" depart="383.80" from="18809672#2" to="18809673#0"/>
    <trip id="405" depart="384.75" from="10425609#1" to="-28111977#1"/>
    <trip id="406" depart="385.70" from="-24634414#1" to="24634411"/>
    <trip id="407" depart="386.65" from="201201945#3" to="-24634521#0"/>
    <trip id="408" depart="387.60" from="25136986" to="-160314351#1"/>
    <trip id="409" depart="388.55" from="24634513#6" to="24634414#3"/>
    <trip id="411" depart="390.45" from="22690206#0" to="26677216#1"/>
    <trip id="412" depart="391.40" from="53396619#3" to="138300620#0"/>
    <trip id="413" depart="392.35" from="-160314345#4" to="160314345#5"/>
    <trip id="415" depart="394.25" from="28319300#3" to="104010460#1"/>
    <trip id="416" depart="395.20" from="168702040#2" to="118362731"/>
    <trip id="418" depart="397.10" from="224892361#1" to="-22724699#2"/>
    <trip id="419" depart="398.05" from="120125554" to="4942389#0"/>
    <trip id="420" depart="399.00" from="-286646456#0" to="24608845"/>
    <trip id="421" depart="399.95" from="224251774#0" to="28111977#3"/>
    <trip id="422" depart="400.90" from="26677542#0" to="28111977#9"/>
    <trip id="423" depart="401.85" from="-32395288#2" to="-26677541"/>
    <trip id="424" depart="402.80" from="24634414#4" to="24634521#2"/>
    <trip id="425" depart="403.75" from="28319300#0" to="-160314345#3"/>
    <trip id="426" depart="404.70" from="-18813598#6" to="202070434#0"/>
    <trip id="427" depart="405.65" from="32124637#1" to="653473569#3"/>
    <trip id="428" depart="406.60" from="24634516#1" to="-653473569#4"/>
    <trip id="429" depart="407.55" from="-201950247#8" to="202092675"/>
    <trip id="430" depart="408.50" from="28319300#0" to="10425609#0"/>
    <trip id="432" depart="410.40" from="-164078530" to="25187891"/>
    <trip id="433" depart="411.35" from="-26642362#5" to="-32124744"/>