<?xml version='1.0' encoding='utf-8'?>
<routes>
  <flow id="flow_-23283579#1_23283436" from="-23283579#1" to="23283436" begin="0" end="100000" probability="0.0002358260019550342" departSpeed="max" departPos="base" departLane="best" />
  <flow id="flow_-28675510#11_28675510#7" from="-28675510#11" to="28675510#7" begin="0" end="100000" probability="0.0011005213424568263" departSpeed="max" departPos="base" departLane="best" />
  <flow id="flow_22917421#3_-186623965#14" from="22917421#3" to="-186623965#14" begin="0" end="100000" probability="0.0018866080156402737" departSpeed="max" departPos="base" departLane="best" />
  <flow id="flow_-23283579#1_297047309#0" from="-23283579#1" to="297047309#0" begin="0" end="100000" probability="0.002515477354187032" departSpeed="max" departPos="base" departLane="best" />
  <flow id="flow_22959552#0_28675510#7" from="22959552#0" to="28675510#7" begin="0" end="100000" probability="0.0003930433365917237" departSpeed="max" departPos="base" departLane="best" />
  <flow id="flow_-28675510#11_-186623965#14" from="-28675510#11" to="-186623965#14" begin="0" end="100000" probability="0.005659824046920821" departSpeed="max" departPos="base" departLane="best" />
  <flow id="flow_-186623965#18_-22917421#4" from="-186623965#18" to="-22917421#4" begin="0" end="100000" probability="0.001257738677093516" departSpeed="max" departPos="base" departLane="best" />
  <flow id="flow_25166682#0_28675510#7" from="25166682#0" to="28675510#7" begin="0" end="100000" probability="0.0003930433365917237" departSpeed="max" departPos="base" departLane="best" />
  <flow id="flow_-23283579#1_-186623965#14" from="-23283579#1" to="-186623965#14" begin="0" end="100000" probability="0.0030657380254154446" departSpeed="max" departPos="base" departLane="best" />
  <flow id="flow_-28675510#11_8716827#0" from="-28675510#11" to="8716827#0" begin="0" end="100000" probability="0.000628869338546758" departSpeed="max" departPos="base" departLane="best" />
  <flow id="flow_-23283579#1_23283579#1" from="-23283579#1" to="23283579#1" begin="0" end="100000" probability="0.0003930433365917237" departSpeed="max" departPos="base" departLane="best" />
  <flow id="flow_22917421#3_28675510#7" from="22917421#3" to="28675510#7" begin="0" end="100000" probability="0.0014149560117302053" departSpeed="max" departPos="base" departLane="best" />
  <flow id="flow_186623965#9_186623965#17" from="186623965#9" to="186623965#17" begin="0" end="100000" probability="0.0035373900293255134" departSpeed="max" departPos="base" departLane="best" />
  <flow id="flow_186623965#9_42925825#0" from="186623965#9" to="42925825#0" begin="0" end="100000" probability="0.0022796513522319976" departSpeed="max" departPos="base" departLane="best" />
  <flow id="flow_-186623965#18_297047309#0" from="-186623965#18" to="297047309#0" begin="0" end="100000" probability="0.0003930433365917237" departSpeed="max" departPos="base" departLane="best" />
  <flow id="flow_22917421#3_186623965#17" from="22917421#3" to="186623965#17" begin="0" end="100000" probability="0.004244868035190616" departSpeed="max" departPos="base" departLane="best" />
  <flow id="flow_-186623965#18_42925825#0" from="-186623965#18" to="42925825#0" begin="0" end="100000" probability="0.0033015640273704795" departSpeed="max" departPos="base" departLane="best" />
  <flow id="flow_-42925825#2_42925825#0" from="-42925825#2" to="42925825#0" begin="0" end="100000" probability="0.0022796513522319976" departSpeed="max" departPos="base" departLane="best" />
  <flow id="flow_22959550#0_28675510#7" from="22959550#0" to="28675510#7" begin="0" end="100000" probability="0.0001572173346366895" departSpeed="max" departPos="base" departLane="best" />
  <flow id="flow_22917421#3_28675493" from="22917421#3" to="28675493" begin="0" end="100000" probability="7.860866731834475e-05" departSpeed="max" departPos="base" departLane="best" />
  <flow id="flow_28675510#1_323416262" from="28675510#1" to="323416262" begin="0" end="100000" probability="7.860866731834475e-05" departSpeed="max" departPos="base" departLane="best" />
  <flow id="flow_22917421#3_23648008#2" from="22917421#3" to="23648008#2" begin="0" end="100000" probability="7.860866731834475e-05" departSpeed="max" departPos="base" departLane="best" />
  <flow id="flow_-28675510#11_8716807#1" from="-28675510#11" to="8716807#1" begin="0" end="100000" probability="0.0002358260019550342" departSpeed="max" departPos="base" departLane="best" />
  <flow id="flow_-186623965#18_-186623965#14" from="-186623965#18" to="-186623965#14" begin="0" end="100000" probability="0.013363473444118605" departSpeed="max" departPos="base" departLane="best" />
  <flow id="flow_-23283579#1_323450710#0" from="-23283579#1" to="323450710#0" begin="0" end="100000" probability="0.0004716520039100684" departSpeed="max" departPos="base" departLane="best" />
  <flow id="flow_23283580#0_28675510#7" from="23283580#0" to="28675510#7" begin="0" end="100000" probability="0.0002358260019550342" departSpeed="max" departPos="base" departLane="best" />
  <flow id="flow_-23283579#1_23285888#0" from="-23283579#1" to="23285888#0" begin="0" end="100000" probability="0.000314434669273379" departSpeed="max" departPos="base" departLane="best" />
  <flow id="flow_-23283579#1_-23648008#0" from="-23283579#1" to="-23648008#0" begin="0" end="100000" probability="0.0001572173346366895" departSpeed="max" departPos="base" departLane="best" />
  <flow id="flow_-297047309#0_28675510#7" from="-297047309#0" to="28675510#7" begin="0" end="100000" probability="0.0009433040078201369" departSpeed="max" departPos="base" departLane="best" />
  <flow id="flow_8716807#1_28675510#7" from="8716807#1" to="28675510#7" begin="0" end="100000" probability="0.0007860866731834474" departSpeed="max" departPos="base" departLane="best" />
  <flow id="flow_-353069169#0_24487264" from="-353069169#0" to="24487264" begin="0" end="100000" probability="7.860866731834475e-05" departSpeed="max" departPos="base" departLane="best" />
  <flow id="flow_-23283579#1_133081987#3" from="-23283579#1" to="133081987#3" begin="0" end="100000" probability="7.860866731834475e-05" departSpeed="max" departPos="base" departLane="best" />
  <flow id="flow_-23283579#1_23840972" from="-23283579#1" to="23840972" begin="0" end="100000" probability="0.0007074780058651027" departSpeed="max" departPos="base" departLane="best" />
  <flow id="flow_-28675510#11_155723703#0" from="-28675510#11" to="155723703#0" begin="0" end="100000" probability="0.0004716520039100684" departSpeed="max" departPos="base" departLane="best" />
  <flow id="flow_22959550#3_28675510#7" from="22959550#3" to="28675510#7" begin="0" end="100000" probability="0.0003930433365917237" departSpeed="max" departPos="base" departLane="best" />
  <flow id="flow_22959552#0_22959552#0" from="22959552#0" to="22959552#0" begin="0" end="100000" probability="0.0002358260019550342" departSpeed="max" departPos="base" departLane="best" />
  <flow id="flow_-297047307_297047309#0" from="-297047307" to="297047309#0" begin="0" end="100000" probability="7.860866731834475e-05" departSpeed="max" departPos="base" departLane="best" />
  <flow id="flow_23283470#0_323416262" from="23283470#0" to="323416262" begin="0" end="100000" probability="7.860866731834475e-05" departSpeed="max" departPos="base" departLane="best" />
  <flow id="flow_-23283579#1_-297047308" from="-23283579#1" to="-297047308" begin="0" end="100000" probability="7.860866731834475e-05" departSpeed="max" departPos="base" departLane="best" />
  <flow id="flow_22917421#3_-23840935" from="22917421#3" to="-23840935" begin="0" end="100000" probability="7.860866731834475e-05" departSpeed="max" departPos="base" departLane="best" />
  <flow id="flow_-28675510#0_28675510#7" from="-28675510#0" to="28675510#7" begin="0" end="100000" probability="0.0003930433365917237" departSpeed="max" departPos="base" departLane="best" />
  <flow id="flow_-23283579#1_-297047309#0" from="-23283579#1" to="-297047309#0" begin="0" end="100000" probability="0.0001572173346366895" departSpeed="max" departPos="base" departLane="best" />
  <flow id="flow_133081987#0_23283436" from="133081987#0" to="23283436" begin="0" end="100000" probability="0.0001572173346366895" departSpeed="max" departPos="base" departLane="best" />
  <flow id="flow_23840713#2_42925825#0" from="23840713#2" to="42925825#0" begin="0" end="100000" probability="0.000314434669273379" departSpeed="max" departPos="base" departLane="best" />
  <flow id="flow_22917421#3_23840972" from="22917421#3" to="23840972" begin="0" end="100000" probability="0.0002358260019550342" departSpeed="max" departPos="base" departLane="best" />
  <flow id="flow_-186623965#16_186623965#17" from="-186623965#16" to="186623965#17" begin="0" end="100000" probability="0.0001572173346366895" departSpeed="max" departPos="base" departLane="best" />
  <flow id="flow_8716807#1_323416262" from="8716807#1" to="323416262" begin="0" end="100000" probability="7.860866731834475e-05" departSpeed="max" departPos="base" departLane="best" />
  <flow id="flow_-23283579#1_23283470#5" from="-23283579#1" to="23283470#5" begin="0" end="100000" probability="7.860866731834475e-05" departSpeed="max" departPos="base" departLane="best" />
  <flow id="flow_23285888#0_297047309#0" from="23285888#0" to="297047309#0" begin="0" end="100000" probability="7.860866731834475e-05" departSpeed="max" departPos="base" departLane="best" />
  <flow id="flow_-353069169#0_323416262" from="-353069169#0" to="323416262" begin="0" end="100000" probability="0.0002358260019550342" departSpeed="max" departPos="base" departLane="best" />
  <flow id="flow_133081987#3_297047309#0" from="133081987#3" to="297047309#0" begin="0" end="100000" probability="0.0001572173346366895" departSpeed="max" departPos="base" departLane="best" />
  <flow id="flow_23840712#0_-186623965#14" from="23840712#0" to="-186623965#14" begin="0" end="100000" probability="7.860866731834475e-05" departSpeed="max" departPos="base" departLane="best" />
  <flow id="flow_-23283579#1_-23840935" from="-23283579#1" to="-23840935" begin="0" end="100000" probability="0.0003930433365917237" departSpeed="max" departPos="base" departLane="best" />
  <flow id="flow_-25166682#0_23283579#1" from="-25166682#0" to="23283579#1" begin="0" end="100000" probability="7.860866731834475e-05" departSpeed="max" departPos="base" departLane="best" />
  <flow id="flow_23283470#0_23283579#1" from="23283470#0" to="23283579#1" begin="0" end="100000" probability="0.000314434669273379" departSpeed="max" departPos="base" departLane="best" />
  <flow id="flow_-297047309#0_-23840888#0" from="-297047309#0" to="-23840888#0" begin="0" end="100000" probability="7.860866731834475e-05" departSpeed="max" departPos="base" departLane="best" />
  <flow id="flow_186623965#9_323450710#0" from="186623965#9" to="323450710#0" begin="0" end="100000" probability="7.860866731834475e-05" departSpeed="max" departPos="base" departLane="best" />
  <flow id="flow_-28675510#11_186623965#17" from="-28675510#11" to="186623965#17" begin="0" end="100000" probability="0.0002358260019550342" departSpeed="max" departPos="base" departLane="best" />
  <flow id="flow_290365598#0_-186623965#14" from="290365598#0" to="-186623965#14" begin="0" end="100000" probability="0.000314434669273379" departSpeed="max" departPos="base" departLane="best" />
  <flow id="flow_-4936412_8716827#0" from="-4936412" to="8716827#0" begin="0" end="100000" probability="0.004716520039100684" departSpeed="max" departPos="base" departLane="best" />
  <flow id="flow_-186623965#18_23283473" from="-186623965#18" to="23283473" begin="0" end="100000" probability="7.860866731834475e-05" departSpeed="max" departPos="base" departLane="best" />
  <flow id="flow_-23840712#0_28675510#7" from="-23840712#0" to="28675510#7" begin="0" end="100000" probability="0.000628869338546758" departSpeed="max" departPos="base" departLane="best" />
  <flow id="flow_25166682#0_323450710#0" from="25166682#0" to="323450710#0" begin="0" end="100000" probability="0.0001572173346366895" departSpeed="max" departPos="base" departLane="best" />
  <flow id="flow_-28675493_23283579#1" from="-28675493" to="23283579#1" begin="0" end="100000" probability="7.860866731834475e-05" departSpeed="max" departPos="base" departLane="best" />
  <flow id="flow_-186623965#18_-23840935" from="-186623965#18" to="-23840935" begin="0" end="100000" probability="0.0002358260019550342" departSpeed="max" departPos="base" departLane="best" />
  <flow id="flow_42925825#0_42925825#0" from="42925825#0" to="42925825#0" begin="0" end="100000" probability="0.0002358260019550342" departSpeed="max" departPos="base" departLane="best" />
  <flow id="flow_23647126_23283579#1" from="23647126" to="23283579#1" begin="0" end="100000" probability="0.0001572173346366895" departSpeed="max" departPos="base" departLane="best" />
  <flow id="flow_-297047309#0_23283579#1" from="-297047309#0" to="23283579#1" begin="0" end="100000" probability="0.0003930433365917237" departSpeed="max" departPos="base" departLane="best" />
  <flow id="flow_22959550#3_42925825#0" from="22959550#3" to="42925825#0" begin="0" end="100000" probability="7.860866731834475e-05" departSpeed="max" departPos="base" departLane="best" />
  <flow id="flow_297047308_297047309#0" from="297047308" to="297047309#0" begin="0" end="100000" probability="7.860866731834475e-05" departSpeed="max" departPos="base" departLane="best" />
  <flow id="flow_23283579#1_23283579#1" from="23283579#1" to="23283579#1" begin="0" end="100000" probability="0.0008646953405017922" departSpeed="max" departPos="base" departLane="best" />
  <flow id="flow_-4936412_155723703#0" from="-4936412" to="155723703#0" begin="0" end="100000" probability="0.0014149560117302053" departSpeed="max" departPos="base" departLane="best" />
  <flow id="flow_23647118_297047309#0" from="23647118" to="297047309#0" begin="0" end="100000" probability="7.860866731834475e-05" departSpeed="max" departPos="base" departLane="best" />
  <flow id="flow_-186623965#18_-28675493" from="-186623965#18" to="-28675493" begin="0" end="100000" probability="0.0002358260019550342" departSpeed="max" departPos="base" departLane="best" />
  <flow id="flow_28675510#1_42925825#0" from="28675510#1" to="42925825#0" begin="0" end="100000" probability="0.000314434669273379" departSpeed="max" departPos="base" departLane="best" />
  <flow id="flow_-42925825#2_60909001" from="-42925825#2" to="60909001" begin="0" end="100000" probability="0.0001572173346366895" departSpeed="max" departPos="base" departLane="best" />
  <flow id="flow_-186623965#18_323450710#0" from="-186623965#18" to="323450710#0" begin="0" end="100000" probability="0.0003930433365917237" departSpeed="max" departPos="base" departLane="best" />
  <flow id="flow_-42925825#2_-297047310#2" from="-42925825#2" to="-297047310#2" begin="0" end="100000" probability="0.0002358260019550342" departSpeed="max" departPos="base" departLane="best" />
  <flow id="flow_-23283472#2_23283436" from="-23283472#2" to="23283436" begin="0" end="100000" probability="0.0001572173346366895" departSpeed="max" departPos="base" departLane="best" />
  <flow id="flow_-23283579#1_42925825#0" from="-23283579#1" to="42925825#0" begin="0" end="100000" probability="0.0010219126751384816" departSpeed="max" departPos="base" departLane="best" />
  <flow id="flow_-23283579#1_28675510#7" from="-23283579#1" to="28675510#7" begin="0" end="100000" probability="0.0010219126751384816" departSpeed="max" departPos="base" departLane="best" />
  <flow id="flow_-25166682#0_28675510#7" from="-25166682#0" to="28675510#7" begin="0" end="100000" probability="0.0001572173346366895" departSpeed="max" departPos="base" departLane="best" />
  <flow id="flow_22917421#3_42925825#0" from="22917421#3" to="42925825#0" begin="0" end="100000" probability="0.0007860866731834474" departSpeed="max" departPos="base" departLane="best" />
  <flow id="flow_23283580#0_23286179#2" from="23283580#0" to="23286179#2" begin="0" end="100000" probability="0.0005502606712284131" departSpeed="max" departPos="base" departLane="best" />
  <flow id="flow_-23840712#0_297047309#0" from="-23840712#0" to="297047309#0" begin="0" end="100000" probability="7.860866731834475e-05" departSpeed="max" departPos="base" departLane="best" />
  <flow id="flow_23840712#1_297047309#0" from="23840712#1" to="297047309#0" begin="0" end="100000" probability="0.0001572173346366895" departSpeed="max" departPos="base" departLane="best" />
  <flow id="flow_-186623965#18_-290365598#1" from="-186623965#18" to="-290365598#1" begin="0" end="100000" probability="7.860866731834475e-05" departSpeed="max" departPos="base" departLane="best" />
  <flow id="flow_-23283579#1_23648008#2" from="-23283579#1" to="23648008#2" begin="0" end="100000" probability="0.0001572173346366895" departSpeed="max" departPos="base" departLane="best" />
  <flow id="flow_-23283579#1_23647126" from="-23283579#1" to="23647126" begin="0" end="100000" probability="7.860866731834475e-05" departSpeed="max" departPos="base" departLane="best" />
  <flow id="flow_23286179#2_42925825#0" from="23286179#2" to="42925825#0" begin="0" end="100000" probability="7.860866731834475e-05" departSpeed="max" departPos="base" departLane="best" />
  <flow id="flow_-42925825#2_297047309#0" from="-42925825#2" to="297047309#0" begin="0" end="100000" probability="0.0005502606712284131" departSpeed="max" departPos="base" departLane="best" />
  <flow id="flow_-23283579#1_-23840972" from="-23283579#1" to="-23840972" begin="0" end="100000" probability="0.0001572173346366895" departSpeed="max" departPos="base" departLane="best" />
  <flow id="flow_-28675510#11_297047310#4" from="-28675510#11" to="297047310#4" begin="0" end="100000" probability="7.860866731834475e-05" departSpeed="max" departPos="base" departLane="best" />
  <flow id="flow_28675510#1_28675510#7" from="28675510#1" to="28675510#7" begin="0" end="100000" probability="0.000314434669273379" departSpeed="max" departPos="base" departLane="best" />
  <flow id="flow_186623965#17_42925825#0" from="186623965#17" to="42925825#0" begin="0" end="100000" probability="7.860866731834475e-05" departSpeed="max" departPos="base" departLane="best" />
  <flow id="flow_23840713#2_28675510#7" from="23840713#2" to="28675510#7" begin="0" end="100000" probability="0.0002358260019550342" departSpeed="max" departPos="base" departLane="best" />
  <flow id="flow_23283474_22959552#0" from="23283474" to="22959552#0" begin="0" end="100000" probability="0.0001572173346366895" departSpeed="max" departPos="base" departLane="best" />
  <flow id="flow_-186623965#18_-28675510#5" from="-186623965#18" to="-28675510#5" begin="0" end="100000" probability="7.860866731834475e-05" departSpeed="max" departPos="base" departLane="best" />
  <flow id="flow_132042183_-23283472#2" from="132042183" to="-23283472#2" begin="0" end="100000" probability="7.860866731834475e-05" departSpeed="max" departPos="base" departLane="best" />
  <flow id="flow_-186623965#18_23840935" from="-186623965#18" to="23840935" begin="0" end="100000" probability="0.0001572173346366895" departSpeed="max" departPos="base" departLane="best" />
  <flow id="flow_186623965#9_-186623965#14" from="186623965#9" to="-186623965#14" begin="0" end="100000" probability="0.000628869338546758" departSpeed="max" departPos="base" departLane="best" />
  <flow id="flow_160807420_8716827#0" from="160807420" to="8716827#0" begin="0" end="100000" probability="0.001257738677093516" departSpeed="max" departPos="base" departLane="best" />
  <flow id="flow_186623965#9_-22917421#4" from="186623965#9" to="-22917421#4" begin="0" end="100000" probability="0.0001572173346366895" departSpeed="max" departPos="base" departLane="best" />
  <flow id="flow_-23283579#1_25166682#0" from="-23283579#1" to="25166682#0" begin="0" end="100000" probability="0.0002358260019550342" departSpeed="max" departPos="base" departLane="best" />
  <flow id="flow_290365598#0_28675510#7" from="290365598#0" to="28675510#7" begin="0" end="100000" probability="0.0002358260019550342" departSpeed="max" departPos="base" departLane="best" />
  <flow id="flow_-23283579#1_-24610382" from="-23283579#1" to="-24610382" begin="0" end="100000" probability="7.860866731834475e-05" departSpeed="max" departPos="base" departLane="best" />
  <flow id="flow_186623965#17_186623965#17" from="186623965#17" to="186623965#17" begin="0" end="100000" probability="0.0002358260019550342" departSpeed="max" departPos="base" departLane="best" />
  <flow id="flow_22959552#1_186623965#17" from="22959552#1" to="186623965#17" begin="0" end="100000" probability="7.860866731834475e-05" departSpeed="max" departPos="base" departLane="best" />
  <flow id="flow_160807420_23283436" from="160807420" to="23283436" begin="0" end="100000" probability="0.0007074780058651027" departSpeed="max" departPos="base" departLane="best" />
  <flow id="flow_22959550#0_297047309#0" from="22959550#0" to="297047309#0" begin="0" end="100000" probability="0.0002358260019550342" departSpeed="max" departPos="base" departLane="best" />
  <flow id="flow_-23283579#1_-23283580#1" from="-23283579#1" to="-23283580#1" begin="0" end="100000" probability="7.860866731834475e-05" departSpeed="max" departPos="base" departLane="best" />
  <flow id="flow_-4936412_22959552#0" from="-4936412" to="22959552#0" begin="0" end="100000" probability="7.860866731834475e-05" departSpeed="max" departPos="base" departLane="best" />
  <flow id="flow_-23283579#1_-297047310#2" from="-23283579#1" to="-297047310#2" begin="0" end="100000" probability="7.860866731834475e-05" departSpeed="max" departPos="base" departLane="best" />
  <flow id="flow_-22917421#14_186623965#17" from="-22917421#14" to="186623965#17" begin="0" end="100000" probability="0.0001572173346366895" departSpeed="max" departPos="base" departLane="best" />
  <flow id="flow_-186623965#18_8716807#1" from="-186623965#18" to="8716807#1" begin="0" end="100000" probability="0.0001572173346366895" departSpeed="max" departPos="base" departLane="best" />
  <flow id="flow_23286179#2_28675510#7" from="23286179#2" to="28675510#7" begin="0" end="100000" probability="0.0001572173346366895" departSpeed="max" departPos="base" departLane="best" />
  <flow id="flow_-186623965#18_23840888#0" from="-186623965#18" to="23840888#0" begin="0" end="100000" probability="7.860866731834475e-05" departSpeed="max" departPos="base" departLane="best" />
  <flow id="flow_22959552#0_-186623965#14" from="22959552#0" to="-186623965#14" begin="0" end="100000" probability="0.0001572173346366895" departSpeed="max" departPos="base" departLane="best" />
  <flow id="flow_23840713#2_-186623965#14" from="23840713#2" to="-186623965#14" begin="0" end="100000" probability="0.000314434669273379" departSpeed="max" departPos="base" departLane="best" />
  <flow id="flow_-186623965#18_23840972" from="-186623965#18" to="23840972" begin="0" end="100000" probability="0.0003930433365917237" departSpeed="max" departPos="base" departLane="best" />
  <flow id="flow_-23283579#1_23648008#0" from="-23283579#1" to="23648008#0" begin="0" end="100000" probability="7.860866731834475e-05" departSpeed="max" departPos="base" departLane="best" />
  <flow id="flow_-42925825#2_-186623965#14" from="-42925825#2" to="-186623965#14" begin="0" end="100000" probability="0.01619338546757902" departSpeed="max" departPos="base" departLane="best" />
  <flow id="flow_23647126_28675510#7" from="23647126" to="28675510#7" begin="0" end="100000" probability="0.000314434669273379" departSpeed="max" departPos="base" departLane="best" />
  <flow id="flow_-42925825#2_23283470#2" from="-42925825#2" to="23283470#2" begin="0" end="100000" probability="0.0001572173346366895" departSpeed="max" departPos="base" departLane="best" />
  <flow id="flow_-23283579#1_23840713#0" from="-23283579#1" to="23840713#0" begin="0" end="100000" probability="0.0001572173346366895" departSpeed="max" departPos="base" departLane="best" />
  <flow id="flow_23840888#1_-186623965#14" from="23840888#1" to="-186623965#14" begin="0" end="100000" probability="0.0001572173346366895" departSpeed="max" departPos="base" departLane="best" />
  <flow id="flow_-23283579#1_28675510#4" from="-23283579#1" to="28675510#4" begin="0" end="100000" probability="0.0001572173346366895" departSpeed="max" departPos="base" departLane="best" />
  <flow id="flow_-23283579#1_8716827#0" from="-23283579#1" to="8716827#0" begin="0" end="100000" probability="0.0015721733463668949" departSpeed="max" departPos="base" departLane="best" />
  <flow id="flow_22959550#3_-186623965#14" from="22959550#3" to="-186623965#14" begin="0" end="100000" probability="0.0001572173346366895" departSpeed="max" departPos="base" departLane="best" />
  <flow id="flow_22959550#0_23283435#1" from="22959550#0" to="23283435#1" begin="0" end="100000" probability="7.860866731834475e-05" departSpeed="max" departPos="base" departLane="best" />
  <flow id="flow_-297047309#0_23648008#2" from="-297047309#0" to="23648008#2" begin="0" end="100000" probability="7.860866731834475e-05" departSpeed="max" departPos="base" departLane="best" />
  <flow id="flow_-25168493_25168493" from="-25168493" to="25168493" begin="0" end="100000" probability="0.000314434669273379" departSpeed="max" departPos="base" departLane="best" />
  <flow id="flow_-23648008#1_323450710#0" from="-23648008#1" to="323450710#0" begin="0" end="100000" probability="7.860866731834475e-05" departSpeed="max" departPos="base" departLane="best" />
  <flow id="flow_22959552#2_-186623965#14" from="22959552#2" to="-186623965#14" begin="0" end="100000" probability="7.860866731834475e-05" departSpeed="max" departPos="base" departLane="best" />
  <flow id="flow_186623965#9_155600123#0" from="186623965#9" to="155600123#0" begin="0" end="100000" probability="0.0002358260019550342" departSpeed="max" departPos="base" departLane="best" />
  <flow id="flow_28675510#1_-186623965#14" from="28675510#1" to="-186623965#14" begin="0" end="100000" probability="0.0001572173346366895" departSpeed="max" departPos="base" departLane="best" />
  <flow id="flow_-4936412_23283436" from="-4936412" to="23283436" begin="0" end="100000" probability="0.0002358260019550342" departSpeed="max" departPos="base" departLane="best" />
  <flow id="flow_-186623965#18_8716827#0" from="-186623965#18" to="8716827#0" begin="0" end="100000" probability="0.0002358260019550342" departSpeed="max" departPos="base" departLane="best" />
  <flow id="flow_23840713#2_155723703#0" from="23840713#2" to="155723703#0" begin="0" end="100000" probability="7.860866731834475e-05" departSpeed="max" departPos="base" departLane="best" />
  <flow id="flow_-186623965#18_-28675494#1" from="-186623965#18" to="-28675494#1" begin="0" end="100000" probability="7.860866731834475e-05" departSpeed="max" departPos="base" departLane="best" />
  <flow id="flow_23286179#2_23286179#2" from="23286179#2" to="23286179#2" begin="0" end="100000" probability="0.0001572173346366895" departSpeed="max" departPos="base" departLane="best" />
  <flow id="flow_133081987#3_23283436" from="133081987#3" to="23283436" begin="0" end="100000" probability="0.0001572173346366895" departSpeed="max" departPos="base" departLane="best" />
  <flow id="flow_-23648008#0_23647126" from="-23648008#0" to="23647126" begin="0" end="100000" probability="7.860866731834475e-05" departSpeed="max" departPos="base" departLane="best" />
  <flow id="flow_-186623965#18_25166682#0" from="-186623965#18" to="25166682#0" begin="0" end="100000" probability="0.0002358260019550342" departSpeed="max" departPos="base" departLane="best" />
  <flow id="flow_-23283579#0_28675510#7" from="-23283579#0" to="28675510#7" begin="0" end="100000" probability="0.000314434669273379" departSpeed="max" departPos="base" departLane="best" />
  <flow id="flow_23283472#0_28675510#7" from="23283472#0" to="28675510#7" begin="0" end="100000" probability="7.860866731834475e-05" departSpeed="max" departPos="base" departLane="best" />
  <flow id="flow_23283470#5_22959552#0" from="23283470#5" to="22959552#0" begin="0" end="100000" probability="0.0001572173346366895" departSpeed="max" departPos="base" departLane="best" />
  <flow id="flow_23647118_28675510#7" from="23647118" to="28675510#7" begin="0" end="100000" probability="0.0002358260019550342" departSpeed="max" departPos="base" departLane="best" />
  <flow id="flow_22959550#4_28675510#7" from="22959550#4" to="28675510#7" begin="0" end="100000" probability="7.860866731834475e-05" departSpeed="max" departPos="base" departLane="best" />
  <flow id="flow_-23283579#1_155723703#0" from="-23283579#1" to="155723703#0" begin="0" end="100000" probability="0.0003930433365917237" departSpeed="max" departPos="base" departLane="best" />
  <flow id="flow_-23283579#1_-22917421#4" from="-23283579#1" to="-22917421#4" begin="0" end="100000" probability="0.0004716520039100684" departSpeed="max" departPos="base" departLane="best" />
  <flow id="flow_28675510#1_22959552#0" from="28675510#1" to="22959552#0" begin="0" end="100000" probability="7.860866731834475e-05" departSpeed="max" departPos="base" departLane="best" />
  <flow id="flow_-42925825#2_186623965#17" from="-42925825#2" to="186623965#17" begin="0" end="100000" probability="0.0013363473444118605" departSpeed="max" departPos="base" departLane="best" />
  <flow id="flow_-23283472#2_28675510#7" from="-23283472#2" to="28675510#7" begin="0" end="100000" probability="7.860866731834475e-05" departSpeed="max" departPos="base" departLane="best" />
  <flow id="flow_186623965#9_-23840712#4" from="186623965#9" to="-23840712#4" begin="0" end="100000" probability="7.860866731834475e-05" departSpeed="max" departPos="base" departLane="best" />
  <flow id="flow_-42925825#2_23647126" from="-42925825#2" to="23647126" begin="0" end="100000" probability="0.0001572173346366895" departSpeed="max" departPos="base" departLane="best" />