<?xml version='1.0' encoding='utf-8'?>
<routes>
  <flow id="flow_23283472#0_-133081987#2" from="23283472#0" to="-133081987#2" begin="0" end="10000" probability="0.0001191512513601741" departSpeed="max" departPos="base" departLane="best" />
  <flow id="flow_-28675510#5_-28675510#3" from="-28675510#5" to="-28675510#3" begin="0" end="10000" probability="0.0001191512513601741" departSpeed="max" departPos="base" departLane="best" />
  <flow id="flow_23648008#2_23648008#2" from="23648008#2" to="23648008#2" begin="0" end="10000" probability="0.0001191512513601741" departSpeed="max" departPos="base" departLane="best" />
  <flow id="flow_28675510#0_-23283472#2" from="28675510#0" to="-23283472#2" begin="0" end="10000" probability="0.0001191512513601741" departSpeed="max" departPos="base" departLane="best" />
  <flow id="flow_133081985#0_-133081987#2" from="133081985#0" to="-133081987#2" begin="0" end="10000" probability="0.0001191512513601741" departSpeed="max" departPos="base" departLane="best" />
  <flow id="flow_-24610382_23283435#1" from="-24610382" to="23283435#1" begin="0" end="10000" probability="0.0002383025027203482" departSpeed="max" departPos="base" departLane="best" />
  <flow id="flow_-133081987#2_-28675493" from="-133081987#2" to="-28675493" begin="0" end="10000" probability="0.0001191512513601741" departSpeed="max" departPos="base" departLane="best" />
  <flow id="flow_23283473_23283470#3" from="23283473" to="23283470#3" begin="0" end="10000" probability="0.0001191512513601741" departSpeed="max" departPos="base" departLane="best" />
  <flow id="flow_-25166682#0_23283579#0" from="-25166682#0" to="23283579#0" begin="0" end="10000" probability="0.0001191512513601741" departSpeed="max" departPos="base" departLane="best" />
  <flow id="flow_23840887#0_-132042183" from="23840887#0" to="-132042183" begin="0" end="10000" probability="0.0001191512513601741" departSpeed="max" departPos="base" departLane="best" />
  <flow id="flow_23840887#0_23686088#1" from="23840887#0" to="23686088#1" begin="0" end="10000" probability="0.0003574537540805223" departSpeed="max" departPos="base" departLane="best" />
  <flow id="flow_-309744810#1_-23840712#0" from="-309744810#1" to="-23840712#0" begin="0" end="10000" probability="0.0001191512513601741" departSpeed="max" departPos="base" departLane="best" />
  <flow id="flow_60909001_133081985#1" from="60909001" to="133081985#1" begin="0" end="10000" probability="0.0001191512513601741" departSpeed="max" departPos="base" departLane="best" />
  <flow id="flow_-23283579#0_-23283579#0" from="-23283579#0" to="-23283579#0" begin="0" end="10000" probability="0.0001191512513601741" departSpeed="max" departPos="base" departLane="best" />
  <flow id="flow_24675285_23283580#0" from="24675285" to="23283580#0" begin="0" end="10000" probability="0.0002383025027203482" departSpeed="max" departPos="base" departLane="best" />
  <flow id="flow_23840887#0_23840713#2" from="23840887#0" to="23840713#2" begin="0" end="10000" probability="0.0001191512513601741" departSpeed="max" departPos="base" departLane="best" />
  <flow id="flow_22959550#3_8716807#1" from="22959550#3" to="8716807#1" begin="0" end="10000" probability="0.0001191512513601741" departSpeed="max" departPos="base" departLane="best" />
  <flow id="flow_-8716807#0_23283470#5" from="-8716807#0" to="23283470#5" begin="0" end="10000" probability="0.0004766050054406964" departSpeed="max" departPos="base" departLane="best" />
  <flow id="flow_23840888#0_23286179#0" from="23840888#0" to="23286179#0" begin="0" end="10000" probability="0.0001191512513601741" departSpeed="max" departPos="base" departLane="best" />
  <flow id="flow_24694889_23283474" from="24694889" to="23283474" begin="0" end="10000" probability="0.0002383025027203482" departSpeed="max" departPos="base" departLane="best" />
  <flow id="flow_23647118_-186623965#16" from="23647118" to="-186623965#16" begin="0" end="10000" probability="0.0001191512513601741" departSpeed="max" departPos="base" departLane="best" />
  <flow id="flow_-28675493_-309744810#1" from="-28675493" to="-309744810#1" begin="0" end="10000" probability="0.0003574537540805223" departSpeed="max" departPos="base" departLane="best" />
  <flow id="flow_-22959475#4_-28675510#5" from="-22959475#4" to="-28675510#5" begin="0" end="10000" probability="0.0002383025027203482" departSpeed="max" departPos="base" departLane="best" />
  <flow id="flow_-23283579#1_-297047310#2" from="-23283579#1" to="-297047310#2" begin="0" end="10000" probability="0.0002383025027203482" departSpeed="max" departPos="base" departLane="best" />
  <flow id="flow_23283472#0_155600123#0" from="23283472#0" to="155600123#0" begin="0" end="10000" probability="0.0002383025027203482" departSpeed="max" departPos="base" departLane="best" />
  <flow id="flow_-4936412_-28675494#1" from="-4936412" to="-28675494#1" begin="0" end="10000" probability="0.0001191512513601741" departSpeed="max" departPos="base" departLane="best" />
  <flow id="flow_-28675510#3_323450710#0" from="-28675510#3" to="323450710#0" begin="0" end="10000" probability="0.0002383025027203482" departSpeed="max" departPos="base" departLane="best" />
  <flow id="flow_23283473_23285888#0" from="23283473" to="23285888#0" begin="0" end="10000" probability="0.0002383025027203482" departSpeed="max" departPos="base" departLane="best" />
  <flow id="flow_-23840888#1_23840713#0" from="-23840888#1" to="23840713#0" begin="0" end="10000" probability="0.0002383025027203482" departSpeed="max" departPos="base" departLane="best" />
  <flow id="flow_-23840712#4_186623965#15" from="-23840712#4" to="186623965#15" begin="0" end="10000" probability="0.0002383025027203482" departSpeed="max" departPos="base" departLane="best" />
  <flow id="flow_8716807#6_23286180" from="8716807#6" to="23286180" begin="0" end="10000" probability="0.0001191512513601741" departSpeed="max" departPos="base" departLane="best" />
  <flow id="flow_23840888#1_23840935" from="23840888#1" to="23840935" begin="0" end="10000" probability="0.0001191512513601741" departSpeed="max" departPos="base" departLane="best" />
  <flow id="flow_-28675493_-133081987#2" from="-28675493" to="-133081987#2" begin="0" end="10000" probability="0.0001191512513601741" departSpeed="max" departPos="base" departLane="best" />
  <flow id="flow_-297047309#0_-297047308" from="-297047309#0" to="-297047308" begin="0" end="10000" probability="0.0001191512513601741" departSpeed="max" departPos="base" departLane="best" />
  <flow id="flow_-24487264_42925825#0" from="-24487264" to="42925825#0" begin="0" end="10000" probability="0.0001191512513601741" departSpeed="max" departPos="base" departLane="best" />
  <flow id="flow_28675493_-8716807#5" from="28675493" to="-8716807#5" begin="0" end="10000" probability="0.0001191512513601741" departSpeed="max" departPos="base" departLane="best" />
  <flow id="flow_23283474_225249129#0" from="23283474" to="225249129#0" begin="0" end="10000" probability="0.0001191512513601741" departSpeed="max" departPos="base" departLane="best" />
  <flow id="flow_28691861_22959550#4" from="28691861" to="22959550#4" begin="0" end="10000" probability="0.0002383025027203482" departSpeed="max" departPos="base" departLane="best" />
  <flow id="flow_-28675510#3_-290365598#1" from="-28675510#3" to="-290365598#1" begin="0" end="10000" probability="0.0002383025027203482" departSpeed="max" departPos="base" departLane="best" />
  <flow id="flow_22959552#2_-297047308" from="22959552#2" to="-297047308" begin="0" end="10000" probability="0.0001191512513601741" departSpeed="max" departPos="base" departLane="best" />
  <flow id="flow_22959552#5_297047308" from="22959552#5" to="297047308" begin="0" end="10000" probability="0.0001191512513601741" departSpeed="max" departPos="base" departLane="best" />
  <flow id="flow_-8716807#6_-28675510#0" from="-8716807#6" to="-28675510#0" begin="0" end="10000" probability="0.0001191512513601741" departSpeed="max" departPos="base" departLane="best" />
  <flow id="flow_8716827#0_23283436" from="8716827#0" to="23283436" begin="0" end="10000" probability="0.0001191512513601741" departSpeed="max" departPos="base" departLane="best" />
  <flow id="flow_-23283579#0_-186623965#16" from="-23283579#0" to="-186623965#16" begin="0" end="10000" probability="0.0001191512513601741" departSpeed="max" departPos="base" departLane="best" />
  <flow id="flow_-23283580#1_23286179#1" from="-23283580#1" to="23286179#1" begin="0" end="10000" probability="0.0001191512513601741" departSpeed="max" departPos="base" departLane="best" />
  <flow id="flow_23840713#0_22959475#0" from="23840713#0" to="22959475#0" begin="0" end="10000" probability="0.0001191512513601741" departSpeed="max" departPos="base" departLane="best" />
  <flow id="flow_-225249129#1_186623965#15" from="-225249129#1" to="186623965#15" begin="0" end="10000" probability="0.0001191512513601741" departSpeed="max" departPos="base" departLane="best" />
  <flow id="flow_8716827#0_23283470#0" from="8716827#0" to="23283470#0" begin="0" end="10000" probability="0.0001191512513601741" departSpeed="max" departPos="base" departLane="best" />
  <flow id="flow_8716807#1_28675510#4" from="8716807#1" to="28675510#4" begin="0" end="10000" probability="0.0001191512513601741" departSpeed="max" departPos="base" departLane="best" />
  <flow id="flow_-133081985#0_23840712#4" from="-133081985#0" to="23840712#4" begin="0" end="10000" probability="0.0001191512513601741" departSpeed="max" departPos="base" departLane="best" />
  <flow id="flow_23286179#0_23283470#2" from="23286179#0" to="23283470#2" begin="0" end="10000" probability="0.0002383025027203482" departSpeed="max" departPos="base" departLane="best" />
  <flow id="flow_-28675510#3_23286180" from="-28675510#3" to="23286180" begin="0" end="10000" probability="0.0001191512513601741" departSpeed="max" departPos="base" departLane="best" />
  <flow id="flow_-23283580#1_22959550#1" from="-23283580#1" to="22959550#1" begin="0" end="10000" probability="0.0003574537540805223" departSpeed="max" departPos="base" departLane="best" />
  <flow id="flow_155600123#0_4936412" from="155600123#0" to="4936412" begin="0" end="10000" probability="0.0001191512513601741" departSpeed="max" departPos="base" departLane="best" />
  <flow id="flow_28675493_-297047308" from="28675493" to="-297047308" begin="0" end="10000" probability="0.0001191512513601741" departSpeed="max" departPos="base" departLane="best" />
  <flow id="flow_22917421#3_-23840888#0" from="22917421#3" to="-23840888#0" begin="0" end="10000" probability="0.0001191512513601741" departSpeed="max" departPos="base" departLane="best" />
  <flow id="flow_28691861_28675510#7" from="28691861" to="28675510#7" begin="0" end="10000" probability="0.0001191512513601741" departSpeed="max" departPos="base" departLane="best" />
  <flow id="flow_-297047307_23286179#2" from="-297047307" to="23286179#2" begin="0" end="10000" probability="0.0001191512513601741" departSpeed="max" departPos="base" departLane="best" />
  <flow id="flow_23283470#0_-23840712#0" from="23283470#0" to="-23840712#0" begin="0" end="10000" probability="0.0002383025027203482" departSpeed="max" departPos="base" departLane="best" />
  <flow id="flow_23686088#1_23283470#2" from="23686088#1" to="23283470#2" begin="0" end="10000" probability="0.0003574537540805223" departSpeed="max" departPos="base" departLane="best" />
  <flow id="flow_23840712#1_23283470#0" from="23840712#1" to="23283470#0" begin="0" end="10000" probability="0.0002383025027203482" departSpeed="max" departPos="base" departLane="best" />
  <flow id="flow_-132042183_-8716807#6" from="-132042183" to="-8716807#6" begin="0" end="10000" probability="0.0001191512513601741" departSpeed="max" departPos="base" departLane="best" />
  <flow id="flow_-133081985#1_323416262" from="-133081985#1" to="323416262" begin="0" end="10000" probability="0.0001191512513601741" departSpeed="max" departPos="base" departLane="best" />
  <flow id="flow_28675494#0_28675493" from="28675494#0" to="28675493" begin="0" end="10000" probability="0.0001191512513601741" departSpeed="max" departPos="base" departLane="best" />
  <flow id="flow_-297047308_-225249129#0" from="-297047308" to="-225249129#0" begin="0" end="10000" probability="0.0001191512513601741" departSpeed="max" departPos="base" departLane="best" />
  <flow id="flow_28675493_42925825#0" from="28675493" to="42925825#0" begin="0" end="10000" probability="0.0001191512513601741" departSpeed="max" departPos="base" departLane="best" />
  <flow id="flow_-23283472#2_22959552#4" from="-23283472#2" to="22959552#4" begin="0" end="10000" probability="0.0002383025027203482" departSpeed="max" departPos="base" departLane="best" />
  <flow id="flow_-22917421#14_23840887#3" from="-22917421#14" to="23840887#3" begin="0" end="10000" probability="0.0001191512513601741" departSpeed="max" departPos="base" departLane="best" />
  <flow id="flow_23840712#0_-23648008#3" from="23840712#0" to="-23648008#3" begin="0" end="10000" probability="0.0002383025027203482" departSpeed="max" departPos="base" departLane="best" />
  <flow id="flow_186623965#9_23283470#5" from="186623965#9" to="23283470#5" begin="0" end="10000" probability="0.0001191512513601741" departSpeed="max" departPos="base" departLane="best" />
  <flow id="flow_-28675510#3_28675510#7" from="-28675510#3" to="28675510#7" begin="0" end="10000" probability="0.0001191512513601741" departSpeed="max" departPos="base" departLane="best" />
  <flow id="flow_133081985#1_-28675494#1" from="133081985#1" to="-28675494#1" begin="0" end="10000" probability="0.0002383025027203482" departSpeed="max" departPos="base" departLane="best" />
  <flow id="flow_22959550#4_23840713#2" from="22959550#4" to="23840713#2" begin="0" end="10000" probability="0.0001191512513601741" departSpeed="max" departPos="base" departLane="best" />
  <flow id="flow_-23840972_-8716807#5" from="-23840972" to="-8716807#5" begin="0" end="10000" probability="0.0002383025027203482" departSpeed="max" departPos="base" departLane="best" />
  <flow id="flow_8716827#0_23647126" from="8716827#0" to="23647126" begin="0" end="10000" probability="0.0001191512513601741" departSpeed="max" departPos="base" departLane="best" />
  <flow id="flow_133081987#0_23283469" from="133081987#0" to="23283469" begin="0" end="10000" probability="0.0001191512513601741" departSpeed="max" departPos="base" departLane="best" />
  <flow id="flow_-23648008#0_-28675510#3" from="-23648008#0" to="-28675510#3" begin="0" end="10000" probability="0.0001191512513601741" departSpeed="max" departPos="base" departLane="best" />
  <flow id="flow_-309744810#1_23283579#0" from="-309744810#1" to="23283579#0" begin="0" end="10000" probability="0.0002383025027203482" departSpeed="max" departPos="base" departLane="best" />
  <flow id="flow_-28675493_-28675510#0" from="-28675493" to="-28675510#0" begin="0" end="10000" probability="0.0001191512513601741" departSpeed="max" departPos="base" departLane="best" />
  <flow id="flow_-22917421#14_23286179#1" from="-22917421#14" to="23286179#1" begin="0" end="10000" probability="0.0001191512513601741" departSpeed="max" departPos="base" departLane="best" />
  <flow id="flow_-28675493_297047309#0" from="-28675493" to="297047309#0" begin="0" end="10000" probability="0.0001191512513601741" departSpeed="max" departPos="base" departLane="best" />
  <flow id="flow_24694889_-22917421#14" from="24694889" to="-22917421#14" begin="0" end="10000" probability="0.0001191512513601741" departSpeed="max" departPos="base" departLane="best" />
  <flow id="flow_-28675494#1_23648008#1" from="-28675494#1" to="23648008#1" begin="0" end="10000" probability="0.0002383025027203482" departSpeed="max" departPos="base" departLane="best" />
  <flow id="flow_-24610382_-23686088#0" from="-24610382" to="-23686088#0" begin="0" end="10000" probability="0.0001191512513601741" departSpeed="max" departPos="base" departLane="best" />
  <flow id="flow_297047310#3_23283473" from="297047310#3" to="23283473" begin="0" end="10000" probability="0.0001191512513601741" departSpeed="max" departPos="base" departLane="best" />
  <flow id="flow_186623965#9_23840971" from="186623965#9" to="23840971" begin="0" end="10000" probability="0.0001191512513601741" departSpeed="max" departPos="base" departLane="best" />
  <flow id="flow_-23283579#0_22959550#0" from="-23283579#0" to="22959550#0" begin="0" end="10000" probability="0.0001191512513601741" departSpeed="max" departPos="base" departLane="best" />
  <flow id="flow_133081985#1_22959552#0" from="133081985#1" to="22959552#0" begin="0" end="10000" probability="0.0001191512513601741" departSpeed="max" departPos="base" departLane="best" />
  <flow id="flow_23648008#1_23648008#2" from="23648008#1" to="23648008#2" begin="0" end="10000" probability="0.0001191512513601741" departSpeed="max" departPos="base" departLane="best" />
  <flow id="flow_8716807#6_-23283579#1" from="8716807#6" to="-23283579#1" begin="0" end="10000" probability="0.0002383025027203482" departSpeed="max" departPos="base" departLane="best" />
  <flow id="flow_-8716807#6_133081985#1" from="-8716807#6" to="133081985#1" begin="0" end="10000" probability="0.0003574537540805223" departSpeed="max" departPos="base" departLane="best" />
  <flow id="flow_24694889_-290365598#1" from="24694889" to="-290365598#1" begin="0" end="10000" probability="0.0001191512513601741" departSpeed="max" departPos="base" departLane="best" />
  <flow id="flow_-23840971_22959550#3" from="-23840971" to="22959550#3" begin="0" end="10000" probability="0.0002383025027203482" departSpeed="max" departPos="base" departLane="best" />
  <flow id="flow_133081985#0_-297047310#2" from="133081985#0" to="-297047310#2" begin="0" end="10000" probability="0.0001191512513601741" departSpeed="max" departPos="base" departLane="best" />
  <flow id="flow_-28675510#0_297047310#4" from="-28675510#0" to="297047310#4" begin="0" end="10000" probability="0.0001191512513601741" departSpeed="max" departPos="base" departLane="best" />
  <flow id="flow_133081987#3_28675510#4" from="133081987#3" to="28675510#4" begin="0" end="10000" probability="0.0002383025027203482" departSpeed="max" departPos="base" departLane="best" />
  <flow id="flow_8716827#0_28675493" from="8716827#0" to="28675493" begin="0" end="10000" probability="0.0001191512513601741" departSpeed="max" departPos="base" departLane="best" />
  <flow id="flow_8716807#1_323416262" from="8716807#1" to="323416262" begin="0" end="10000" probability="0.0001191512513601741" departSpeed="max" departPos="base" departLane="best" />
  <flow id="flow_24675285_-23840712#4" from="24675285" to="-23840712#4" begin="0" end="10000" probability="0.0001191512513601741" departSpeed="max" departPos="base" departLane="best" />
  <flow id="flow_-8716807#6_-225249129#0" from="-8716807#6" to="-225249129#0" begin="0" end="10000" probability="0.0001191512513601741" departSpeed="max" departPos="base" departLane="best" />
  <flow id="flow_-8716807#0_8716807#6" from="-8716807#0" to="8716807#6" begin="0" end="10000" probability="0.0002383025027203482" departSpeed="max" departPos="base" departLane="best" />
  <flow id="flow_-28675510#3_23840971" from="-28675510#3" to="23840971" begin="0" end="10000" probability="0.0001191512513601741" departSpeed="max" departPos="base" departLane="best" />
  <flow id="flow_155600123#0_22959475#0" from="155600123#0" to="22959475#0" begin="0" end="10000" probability="0.0001191512513601741" departSpeed="max" departPos="base" departLane="best" />
  <flow id="flow_60909001_8716827#0" from="60909001" to="8716827#0" begin="0" end="10000" probability="0.0002383025027203482" departSpeed="max" departPos="base" departLane="best" />
  <flow id="flow_22959552#1_23840712#4" from="22959552#1" to="23840712#4" begin="0" end="10000" probability="0.0001191512513601741" departSpeed="max" departPos="base" departLane="best" />
  <flow id="flow_-23840712#3_-8716807#0" from="-23840712#3" to="-8716807#0" begin="0" end="10000" probability="0.0001191512513601741" departSpeed="max" departPos="base" departLane="best" />
  <flow id="flow_8716807#1_23283474" from="8716807#1" to="23283474" begin="0" end="10000" probability="0.0002383025027203482" departSpeed="max" departPos="base" departLane="best" />
  <flow id="flow_22959550#4_23840887#2" from="22959550#4" to="23840887#2" begin="0" end="10000" probability="0.0001191512513601741" departSpeed="max" departPos="base" departLane="best" />
  <flow id="flow_-225249129#1_23283579#0" from="-225249129#1" to="23283579#0" begin="0" end="10000" probability="0.0001191512513601741" departSpeed="max" departPos="base" departLane="best" />
  <flow id="flow_22917421#3_28675510#1" from="22917421#3" to="28675510#1" begin="0" end="10000" probability="0.0001191512513601741" departSpeed="max" departPos="base" departLane="best" />
  <flow id="flow_-23840712#3_8716807#0" from="-23840712#3" to="8716807#0" begin="0" end="10000" probability="0.0002383025027203482" departSpeed="max" departPos="base" departLane="best" />
  <flow id="flow_-22959475#4_-23840888#1" from="-22959475#4" to="-23840888#1" begin="0" end="10000" probability="0.0001191512513601741" departSpeed="max" departPos="base" departLane="best" />
  <flow id="flow_23283469_23648008#2" from="23283469" to="23648008#2" begin="0" end="10000" probability="0.0003574537540805223" departSpeed="max" departPos="base" departLane="best" />
  <flow id="flow_-28675493_-23648008#1" from="-28675493" to="-23648008#1" begin="0" end="10000" probability="0.0001191512513601741" departSpeed="max" departPos="base" departLane="best" />
  <flow id="flow_28675510#0_-290365598#1" from="28675510#0" to="-290365598#1" begin="0" end="10000" probability="0.0001191512513601741" departSpeed="max" departPos="base" departLane="best" />
  <flow id="flow_23283469_23286179#0" from="23283469" to="23286179#0" begin="0" end="10000" probability="0.0001191512513601741" departSpeed="max" departPos="base" departLane="best" />
  <flow id="flow_133081985#0_23283579#0" from="133081985#0" to="23283579#0" begin="0" end="10000" probability="0.0001191512513601741" departSpeed="max" departPos="base" departLane="best" />
  <flow id="flow_22959550#1_323450710#0" from="22959550#1" to="323450710#0" begin="0" end="10000" probability="0.0001191512513601741" departSpeed="max" departPos="base" departLane="best" />
  <flow id="flow_-24487264_23840712#4" from="-24487264" to="23840712#4" begin="0" end="10000" probability="0.0001191512513601741" departSpeed="max" departPos="base" departLane="best" />
  <flow id="flow_-28675494#1_225249129#0" from="-28675494#1" to="225249129#0" begin="0" end="10000" probability="0.0001191512513601741" departSpeed="max" departPos="base" departLane="best" />
  <flow id="flow_23285888#0_-8716807#0" from="23285888#0" to="-8716807#0" begin="0" end="10000" probability="0.0001191512513601741" departSpeed="max" departPos="base" departLane="best" />
  <flow id="flow_-297047309#0_23840887#2" from="-297047309#0" to="23840887#2" begin="0" end="10000" probability="0.0001191512513601741" departSpeed="max" departPos="base" departLane="best" />
  <flow id="flow_-22917421#14_22959550#4" from="-22917421#14" to="22959550#4" begin="0" end="10000" probability="0.0001191512513601741" departSpeed="max" departPos="base" departLane="best" />
  <flow id="flow_8716827#0_8716827#0" from="8716827#0" to="8716827#0" begin="0" end="10000" probability="0.0002383025027203482" departSpeed="max" departPos="base" departLane="best" />
  <flow id="flow_-22959475#4_-28675510#0" from="-22959475#4" to="-28675510#0" begin="0" end="10000" probability="0.0002383025027203482" departSpeed="max" departPos="base" departLane="best" />
  <flow id="flow_-28675510#3_323416262" from="-28675510#3" to="323416262" begin="0" end="10000" probability="0.0002383025027203482" departSpeed="max" departPos="base" departLane="best" />
  <flow id="flow_28675494#0_28691861" from="28675494#0" to="28691861" begin="0" end="10000" probability="0.0001191512513601741" departSpeed="max" departPos="base" departLane="best" />
  <flow id="flow_-4936412_-23840712#3" from="-4936412" to="-23840712#3" begin="0" end="10000" probability="0.0001191512513601741" departSpeed="max" departPos="base" departLane="best" />
  <flow id="flow_23840888#0_23686088#1" from="23840888#0" to="23686088#1" begin="0" end="10000" probability="0.0002383025027203482" departSpeed="max" departPos="base" departLane="best" />
  <flow id="flow_23283470#2_8716807#6" from="23283470#2" to="8716807#6" begin="0" end="10000" probability="0.0002383025027203482" departSpeed="max" departPos="base" departLane="best" />
  <flow id="flow_23283474_-132042183" from="23283474" to="-132042183" begin="0" end="10000" probability="0.0002383025027203482" departSpeed="max" departPos="base" departLane="best" />
  <flow id="flow_23840887#2_-8716807#0" from="23840887#2" to="-8716807#0" begin="0" end="10000" probability="0.0002383025027203482" departSpeed="max" departPos="base" departLane="best" />
  <flow id="flow_23283579#0_323450710#0" from="23283579#0" to="323450710#0" begin="0" end="10000" probability="0.0001191512513601741" departSpeed="max" departPos="base" departLane="best" />
  <flow id="flow_-23648008#3_-23648008#1" from="-23648008#3" to="-23648008#1" begin="0" end="10000" probability="0.0001191512513601741" departSpeed="max" departPos="base" departLane="best" />
  <flow id="flow_-23283580#1_23283470#5" from="-23283580#1" to="23283470#5" begin="0" end="10000" probability="0.0001191512513601741" departSpeed="max" departPos="base" departLane="best" />
  <flow id="flow_-28675510#5_23283580#0" from="-28675510#5" to="23283580#0" begin="0" end="10000" probability="0.0001191512513601741" departSpeed="max" departPos="base" departLane="best" />
  <flow id="flow_23648008#0_-28675493" from="23648008#0" to="-28675493" begin="0" end="10000" probability="0.0001191512513601741" departSpeed="max" departPos="base" departLane="best" />
  <flow id="flow_23283472#0_-297047308" from="23283472#0" to="-297047308" begin="0" end="10000" probability="0.0001191512513601741" departSpeed="max" departPos="base" departLane="best" />
  <flow id="flow_225249129#0_297047309#0" from="225249129#0" to="297047309#0" begin="0" end="10000" probability="0.0001191512513601741" departSpeed="max" departPos="base" departLane="best" />
  <flow id="flow_24675285_-23283579#0" from="24675285" to="-23283579#0" begin="0" end="10000" probability="0.0003574537540805223" departSpeed="max" departPos="base" departLane="best" />
  <flow id="flow_133081985#1_-297047310#2" from="133081985#1" to="-297047310#2" begin="0" end="10000" probability="0.0001191512513601741" departSpeed="max" departPos="base" departLane="best" />
  <flow id="flow_-132042183_23840935" from="-132042183" to="23840935" begin="0" end="10000" probability="0.0002383025027203482" departSpeed="max" departPos="base" departLane="best" />
  <flow id="flow_23283472#0_-297047307" from="23283472#0" to="-297047307" begin="0" end="10000" probability="0.0002383025027203482" departSpeed="max" departPos="base" departLane="best" />
  <flow id="flow_23656410#0_23283470#5" from="23656410#0" to="23283470#5" begin="0" end="10000" probability="0.0001191512513601741" departSpeed="max" departPos="base" departLane="best" />
  <flow id="flow_133081985#1_-133081985#0" from="133081985#1" to="-133081985#0" begin="0" end="10000" probability="0.0001191512513601741" departSpeed="max" departPos="base" departLane="best" />
  <flow id="flow_-22959475#4_28691861" from="-22959475#4" to="28691861" begin="0" end="10000" probability="0.0002383025027203482" departSpeed="max" departPos="base" departLane="best" />
  <flow id="flow_28675510#4_23283470#3" from="28675510#4" to="23283470#3" begin="0" end="10000" probability="0.0001191512513601741" departSpeed="max" departPos="base" departLane="best" />
  <flow id="flow_23840888#0_23283579#0" from="23840888#0" to="23283579#0" begin="0" end="10000" probability="0.0001191512513601741" departSpeed="max" departPos="base" departLane="best" />
  <flow id="flow_-23686088#1_-23648008#3" from="-23686088#1" to="-23648008#3" begin="0" end="10000" probability="0.0001191512513601741" departSpeed="max" departPos="base" departLane="best" />
  <flow id="flow_-297047308_297047308" from="-297047308" to="297047308" begin="0" end="10000" probability="0.0001191512513601741" departSpeed="max" departPos="base" departLane="best" />
  <flow id="flow_23840713#0_28675510#4" from="23840713#0" to="28675510#4" begin="0" end="10000" probability="0.0001191512513601741" departSpeed="max" departPos="base" departLane="best" />
  <flow id="flow_28675510#1_-28675494#1" from="28675510#1" to="-28675494#1" begin="0" end="10000" probability="0.0002383025027203482" departSpeed="max" departPos="base" departLane="best" />
  <flow id="flow_-28675510#0_-23283579#1" from="-28675510#0" to="-23283579#1" begin="0" end="10000" probability="0.0001191512513601741" departSpeed="max" departPos="base" departLane="best" />
  <flow id="flow_23840712#1_28691861" from="23840712#1" to="28691861" begin="0" end="10000" probability="0.0001191512513601741" departSpeed="max" departPos="base" departLane="best" />
  <flow id="flow_-8716807#6_23286179#0" from="-8716807#6" to="23286179#0" begin="0" end="10000" probability="0.0003574537540805223" departSpeed="max" departPos="base" departLane="best" />
  <flow id="flow_-23840712#3_323416262" from="-23840712#3" to="323416262" begin="0" end="10000" probability="0.0001191512513601741" departSpeed="max" departPos="base" departLane="best" />
  <flow id="flow_23840887#0_28691861" from="23840887#0" to="28691861" begin="0" end="10000" probability="0.0001191512513601741" departSpeed="max" departPos="base" departLane="best" />
  <flow id="flow_-133081987#2_23840713#2" from="-133081987#2" to="23840713#2" begin="0" end="10000" probability="0.0002383025027203482" departSpeed="max" departPos="base" departLane="best" />