<?xml version="1.0" encoding="UTF-8"?>

<!-- generated on 2024-05-29 20:02:48 by Eclipse SUMO duarouter Version 1.19.0
<configuration xmlns:xsi="http://www.w3.org/2001/XMLSchema-instance" xsi:noNamespaceSchemaLocation="http://sumo.dlr.de/xsd/duarouterConfiguration.xsd">

    <input>
        <net-file value="data/cologne8/cologne8.net.xml"/>
        <route-files value="data/cologne8/random_trips.trips.xml"/>
    </input>

    <output>
        <output-file value="data/cologne8/random_routes.rou.xml"/>
        <write-trips value="true"/>
    </output>

    <time>
        <begin value="0"/>
        <end value="10000"/>
    </time>

    <report>
        <verbose value="true"/>
    </report>

</configuration>
-->

<routes xmlns:xsi="http://www.w3.org/2001/XMLSchema-instance" xsi:noNamespaceSchemaLocation="http://sumo.dlr.de/xsd/routes_file.xsd">
    <trip id="0" depart="0.00" from="23283472#0" to="-133081987#2"/>
    <trip id="1" depart="1.76" from="-28675510#5" to="-28675510#3"/>
    <trip id="2" depart="3.51" from="23648008#2" to="23648008#2"/>
    <trip id="3" depart="5.27" from="28675510#0" to="-23283472#2"/>
    <trip id="4" depart="7.03" from="133081985#0" to="-133081987#2"/>
    <trip id="5" depart="8.79" from="-24610382" to="23283435#1"/>
    <trip id="6" depart="10.54" from="-133081987#2" to="-28675493"/>
    <trip id="7" depart="12.30" from="23283473" to="23283470#3"/>
    <trip id="8" depart="14.06" from="-25166682#0" to="23283579#0"/>
    <trip id="9" depart="15.82" from="23840887#0" to="-132042183"/>
    <trip id="10" depart="17.57" from="23840887#0" to="23686088#1"/>
    <trip id="11" depart="19.33" from="-309744810#1" to="-23840712#0"/>
    <trip id="12" depart="21.09" from="60909001" to="133081985#1"/>
    <trip id="13" depart="22.85" from="-23283579#0" to="-23283579#0"/>
    <trip id="14" depart="24.60" from="24675285" to="23283580#0"/>
    <trip id="15" depart="26.36" from="23840887#0" to="23840713#2"/>
    <trip id="16" depart="28.12" from="22959550#3" to="8716807#1"/>
    <trip id="17" depart="29.88" from="-8716807#0" to="23283470#5"/>
    <trip id="18" depart="31.63" from="23840888#0" to="23286179#0"/>
    <trip id="19" depart="33.39" from="24694889" to="23283474"/>
    <trip id="20" depart="35.15" from="23647118" to="-186623965#16"/>
    <trip id="21" depart="36.91" from="-28675493" to="-309744810#1"/>
    <trip id="22" depart="38.66" from="-22959475#4" to="-28675510#5"/>
    <trip id="23" depart="40.42" from="-23283579#1" to="-297047310#2"/>
    <trip id="24" depart="42.18" from="23283472#0" to="155600123#0"/>
    <trip id="25" depart="43.94" from="-4936412" to="-28675494#1"/>
    <trip id="26" depart="45.69" from="-28675510#3" to="323450710#0"/>
    <trip id="27" depart="47.45" from="23283473" to="23285888#0"/>
    <trip id="28" depart="49.21" from="-23840888#1" to="23840713#0"/>
    <trip id="29" depart="50.97" from="-23840712#4" to="186623965#15"/>
    <trip id="30" depart="52.72" from="8716807#6" to="23286180"/>
    <trip id="32" depart="56.24" from="23840888#1" to="23840935"/>
    <trip id="33" depart="58.00" from="-28675493" to="-133081987#2"/>
    <trip id="34" depart="59.75" from="-297047309#0" to="-297047308"/>
    <trip id="35" depart="61.51" from="-24487264" to="42925825#0"/>
    <trip id="36" depart="63.27" from="28675493" to="-8716807#5"/>
    <trip id="37" depart="65.03" from="23283474" to="225249129#0"/>
    <trip id="38" depart="66.78" from="28691861" to="22959550#4"/>
    <trip id="39" depart="68.54" from="-28675510#3" to="-290365598#1"/>
    <trip id="40" depart="70.30" from="22959552#2" to="-297047308"/>
    <trip id="41" depart="72.06" from="22959552#5" to="297047308"/>
    <trip id="42" depart="73.81" from="-8716807#6" to="-28675510#0"/>
    <trip id="43" depart="75.57" from="8716827#0" to="23283436"/>
    <trip id="44" depart="77.33" from="-23283579#0" to="-186623965#16"/>
    <trip id="45" depart="79.09" from="-23283580#1" to="23286179#1"/>
    <trip id="46" depart="80.84" from="23840713#0" to="22959475#0"/>
    <trip id="47" depart="82.60" from="-225249129#1" to="186623965#15"/>
    <trip id="48" depart="84.36" from="8716827#0" to="23283470#0"/>
    <trip id="49" depart="86.12" from="8716807#1" to="28675510#4"/>
    <trip id="50" depart="87.87" from="-133081985#0" to="23840712#4"/>
    <trip id="51" depart="89.63" from="23286179#0" to="23283470#2"/>
    <trip id="52" depart="91.39" from="-28675510#3" to="23286180"/>
    <trip id="53" depart="93.15" from="-23283580#1" to="22959550#1"/>
    <trip id="54" depart="94.90" from="155600123#0" to="4936412"/>
    <trip id="55" depart="96.66" from="28675493" to="-297047308"/>
    <trip id="56" depart="98.42" from="22917421#3" to="-23840888#0"/>
    <trip id="57" depart="100.18" from="28691861" to="28675510#7"/>
    <trip id="58" depart="101.93" from="-297047307" to="23286179#2"/>
    <trip id="59" depart="103.69" from="23283470#0" to="-23840712#0"/>
    <trip id="60" depart="105.45" from="23686088#1" to="23283470#2"/>
    <trip id="61" depart="107.21" from="23840712#1" to="23283470#0"/>
    <trip id="62" depart="108.96" from="-132042183" to="-8716807#6"/>
    <trip id="63" depart="110.72" from="-133081985#1" to="323416262"/>
    <trip id="64" depart="112.48" from="28675494#0" to="28675493"/>
    <trip id="65" depart="114.24" from="-297047308" to="-225249129#0"/>
    <trip id="66" depart="115.99" from="28675493" to="42925825#0"/>
    <trip id="67" depart="117.75" from="-23283472#2" to="22959552#4"/>
    <trip id="68" depart="119.51" from="-22917421#14" to="23840887#3"/>
    <trip id="69" depart="121.27" from="23840712#0" to="-23648008#3"/>
    <trip id="70" depart="123.02" from="186623965#9" to="23283470#5"/>
    <trip id="71" depart="124.78" from="-28675510#3" to="28675510#7"/>
    <trip id="72" depart="126.54" from="133081985#1" to="-28675494#1"/>
    <trip id="73" depart="128.30" from="22959550#4" to="23840713#2"/>
    <trip id="74" depart="130.05" from="-23840972" to="-8716807#5"/>
    <trip id="75" depart="131.81" from="8716827#0" to="23647126"/>
    <trip id="76" depart="133.57" from="133081987#0" to="23283469"/>
    <trip id="77" depart="135.33" from="-23648008#0" to="-28675510#3"/>
    <trip id="78" depart="137.08" from="-309744810#1" to="23283579#0"/>
    <trip id="79" depart="138.84" from="-28675493" to="-28675510#0"/>
    <trip id="80" depart="140.60" from="-22917421#14" to="23286179#1"/>
    <trip id="81" depart="142.36" from="-28675493" to="297047309#0"/>
    <trip id="82" depart="144.11" from="24694889" to="-22917421#14"/>
    <trip id="83" depart="145.87" from="-28675494#1" to="23648008#1"/>
    <trip id="84" depart="147.63" from="-24610382" to="-23686088#0"/>
    <trip id="85" depart="149.38" from="297047310#3" to="23283473"/>
    <trip id="86" depart="151.14" from="186623965#9" to="23840971"/>
    <trip id="88" depart="154.66" from="-23283579#0" to="22959550#0"/>
    <trip id="89" depart="156.41" from="133081985#1" to="22959552#0"/>
    <trip id="90" depart="158.17" from="23648008#1" to="23648008#2"/>
    <trip id="91" depart="159.93" from="8716807#6" to="-23283579#1"/>
    <trip id="92" depart="161.69" from="-8716807#6" to="133081985#1"/>
    <trip id="93" depart="163.44" from="24694889" to="-290365598#1"/>
    <trip id="94" depart="165.20" from="-23840971" to="22959550#3"/>
    <trip id="95" depart="166.96" from="133081985#0" to="-297047310#2"/>
    <trip id="96" depart="168.72" from="-28675510#0" to="297047310#4"/>
    <trip id="97" depart="170.47" from="133081987#3" to="28675510#4"/>
    <trip id="99" depart="173.99" from="8716827#0" to="28675493"/>
    <trip id="100" depart="175.75" from="8716807#1" to="323416262"/>
    <trip id="101" depart="177.50" from="24675285" to="-23840712#4"/>
    <trip id="103" depart="181.02" from="-8716807#6" to="-225249129#0"/>
    <trip id="104" depart="182.78" from="-8716807#0" to="8716807#6"/>
    <trip id="105" depart="184.53" from="-28675510#3" to="23840971"/>
    <trip id="106" depart="186.29" from="155600123#0" to="22959475#0"/>
    <trip id="107" depart="188.05" from="60909001" to="8716827#0"/>
    <trip id="108" depart="189.81" from="22959552#1" to="23840712#4"/>
    <trip id="109" depart="191.56" from="-23840712#3" to="-8716807#0"/>
    <trip id="110" depart="193.32" from="8716807#1" to="23283474"/>
    <trip id="111" depart="195.08" from="22959550#4" to="23840887#2"/>
    <trip id="112" depart="196.84" from="-225249129#1" to="23283579#0"/>
    <trip id="113" depart="198.59" from="22917421#3" to="28675510#1"/>
    <trip id="114" depart="200.35" from="-23840712#3" to="8716807#0"/>
    <trip id="115" depart="202.11" from="-22959475#4" to="-23840888#1"/>
    <trip id="116" depart="203.87" from="23283469" to="23648008#2"/>
    <trip id="117" depart="205.62" from="-28675493" to="-23648008#1"/>
    <trip id="118" depart="207.38" from="28675510#0" to="-290365598#1"/>
    <trip id="119" depart="209.14" from="23283469" to="23286179#0"/>
    <trip id="120" depart="210.90" from="133081985#0" to="23283579#0"/>
    <trip id="121" depart="212.65" from="22959550#1" to="323450710#0"/>
    <trip id="122" depart="214.41" from="-24487264" to="23840712#4"/>
    <trip id="123" depart="216.17" from="-28675494#1" to="225249129#0"/>
    <trip id="124" depart="217.93" from="23285888#0" to="-8716807#0"/>
    <trip id="125" depart="219.68" from="-297047309#0" to="23840887#2"/>
    <trip id="126" depart="221.44" from="-22917421#14" to="22959550#4"/>
    <trip id="127" depart="223.20" from="8716827#0" to="8716827#0"/>
    <trip id="128" depart="224.96" from="-22959475#4" to="-28675510#0"/>
    <trip id="129" depart="226.71" from="-28675510#3" to="323416262"/>
    <trip id="130" depart="228.47" from="28675494#0" to="28691861"/>
    <trip id="131" depart="230.23" from="-4936412" to="-23840712#3"/>
    <trip id="132" depart="231.99" from="23840888#0" to="23686088#1"/>
    <trip id="133" depart="233.74" from="23283470#2" to="8716807#6"/>
    <trip id="134" depart="235.50" from="23283474" to="-132042183"/>
    <trip id="135" depart="237.26" from="23840887#2" to="-8716807#0"/>
    <trip id="136" depart="239.02" from="23283579#0" to="323450710#0"/>
    <trip id="137" depart="240.77" from="-23648008#3" to="-23648008#1"/>
    <trip id="138" depart="242.53" from="-23283580#1" to="23283470#5"/>
    <trip id="139" depart="244.29" from="-28675510#5" to="23283580#0"/>
    <trip id="140" depart="246.05" from="23648008#0" to="-28675493"/>
    <trip id="141" depart="247.80" from="23283472#0" to="-297047308"/>
    <trip id="142" depart="249.56" from="225249129#0" to="297047309#0"/>
    <trip id="143" depart="251.32" from="24675285" to="-23283579#0"/>
    <trip id="144" depart="253.08" from="133081985#1" to="-297047310#2"/>
    <trip id="145" depart="254.83" from="-132042183" to="23840935"/>
    <trip id="146" depart="256.59" from="23283472#0" to="-297047307"/>
    <trip id="147" depart="258.35" from="23656410#0" to="23283470#5"/>
    <trip id="148" depart="260.11" from="133081985#1" to="-133081985#0"/>
    <trip id="149" depart="261.86" from="-22959475#4" to="28691861"/>
    <trip id="150" depart="263.62" from="28675510#4" to="23283470#3"/>
    <trip id="151" depart="265.38" from="23840888#0" to="23283579#0"/>
    <trip id="152" depart="267.14" from="-23686088#1" to="-23648008#3"/>
    <trip id="153" depart="268.89" from="-297047308" to="297047308"/>
    <trip id="154" depart="270.65" from="23840713#0" to="28675510#4"/>
    <trip id="155" depart="272.41" from="28675510#1" to="-28675494#1"/>
    <trip id="156" depart="274.17" from="-28675510#0" to="-23283579#1"/>
    <trip id="157" depart="275.92" from="23840712#1" to="28691861"/>
    <trip id="158" depart="277.68" from="-8716807#6" to="23286179#0"/>
    <trip id="159" depart="279.44" from="-23840712#3" to="323416262"/>
    <trip id="161" depart="282.95" from="23840887#0" to="28691861"/>
    <trip id="162" depart="284.71" from="-133081987#2" to="23840713#2"/>
    <trip id="163" depart="286.47" from="-297047310#3" to="323416262"/>
    <trip id="164" depart="288.22" from="23840713#2" to="28675510#4"/>
    <trip id="165" depart="289.98" from="23840887#0" to="-297047308"/>
    <trip id="166" depart="291.74" from="23840712#4" to="-23648008#0"/>
    <trip id="167" depart="293.50" from="28675493" to="28675510#1"/>
    <trip id="168" depart="295.25" from="-25166682#0" to="24694889"/>
    <trip id="169" depart="297.01" from="160807420" to="-8716807#4"/>
    <trip id="170" depart="298.77" from="23840713#0" to="-28675510#3"/>
    <trip id="172" depart="302.28" from="-297047310#3" to="28675510#4"/>
    <trip id="173" depart="304.04" from="8716807#0" to="-297047310#3"/>
    <trip id="174" depart="305.80" from="23283472#0" to="225249129#0"/>
    <trip id="175" depart="307.56" from="8716807#5" to="23283470#2"/>
    <trip id="176" depart="309.31" from="297047310#3" to="-23648008#1"/>
    <trip id="177" depart="311.07" from="8716807#1" to="-23840888#0"/>
    <trip id="178" depart="312.83" from="8716807#0" to="-297047308"/>
    <trip id="179" depart="314.59" from="-23283580#1" to="22959550#1"/>
    <trip id="180" depart="316.34" from="23648008#1" to="-8716807#5"/>
    <trip id="181" depart="318.10" from="23283470#0" to="23283436"/>
    <trip id="182" depart="319.86" from="-8716807#4" to="23283474"/>
    <trip id="183" depart="321.62" from="-28675510#11" to="23840712#1"/>
    <trip id="184" depart="323.37" from="-132042183" to="297047310#4"/>
    <trip id="185" depart="325.13" from="22959550#4" to="23840712#4"/>
    <trip id="186" depart="326.89" from="23656410#0" to="23648008#1"/>
    <trip id="187" depart="328.65" from="-42925825#2" to="-22917421#14"/>
    <trip id="188" depart="330.40" from="23283579#0" to="133081985#0"/>
    <trip id="189" depart="332.16" from="-297047309#0" to="28675510#0"/>
    <trip id="190" depart="333.92" from="23648008#0" to="-8716807#0"/>
    <trip id="191" depart="335.68" from="-297047309#0" to="225249129#1"/>
    <trip id="192" depart="337.43" from="-8716807#6" to="-8716807#0"/>
    <trip id="193" depart="339.19" from="-23648008#1" to="22959475#0"/>
    <trip id="194" depart="340.95" from="297047310#3" to="23648008#2"/>
    <trip id="195" depart="342.71" from="28675510#4" to="23286179#0"/>
    <trip id="196" depart="344.46" from="-297047308" to="23283470#3"/>
    <trip id="197" depart="346.22" from="-132042183" to="-309744810#1"/>
    <trip id="198" depart="347.98" from="133081985#1" to="23283474"/>
    <trip id="199" depart="349.74" from="23283474" to="22959552#0"/>
    <trip id="200" depart="351.49" from="133081987#3" to="-28675510#0"/>
    <trip id="201" depart="353.25" from="186623965#9" to="297047308"/>
    <trip id="202" depart="355.01" from="23840713#0" to="-23840712#4"/>
    <trip id="203" depart="356.77" from="-23283472#2" to="23283436"/>
    <trip id="204" depart="358.52" from="23283470#5" to="133081985#0"/>
    <trip id="205" depart="360.28" from="23840887#2" to="23840887#2"/>
    <trip id="206" depart="362.04" from="23285888#0" to="-28675510#3"/>
    <trip id="207" depart="363.80" from="-23840972" to="-133081985#1"/>
    <trip id="208" depart="365.55" from="-28675510#0" to="22959552#1"/>
    <trip id="209" depart="367.31" from="24675285" to="-22917421#14"/>
    <trip id="210" depart="369.07" from="132042183" to="23286179#1"/>
    <trip id="211" depart="370.83" from="-23840971" to="23686088#0"/>
    <trip id="212" depart="372.58" from="225249129#0" to="-28691861"/>
    <trip id="213" depart="374.34" from="23283474" to="-132042183"/>
    <trip id="214" depart="376.10" from="23686088#0" to="23840888#1"/>
    <trip id="215" depart="377.86" from="-23283580#1" to="22959475#0"/>
    <trip id="216" depart="379.61" from="-23840888#1" to="4936412"/>
    <trip id="218" depart="383.13" from="-28675510#0" to="28675510#0"/>
    <trip id="219" depart="384.89" from="160807420" to="24487264"/>
    <trip id="220" depart="386.64" from="23285888#0" to="8716807#6"/>
    <trip id="221" depart="388.40" from="23283469" to="42925825#0"/>
    <trip id="222" depart="390.16" from="28675510#0" to="23285888#0"/>
    <trip id="223" depart="391.92" from="23648008#0" to="23283435#1"/>
    <trip id="224" depart="393.67" from="23840888#0" to="23283470#3"/>
    <trip id="225" depart="395.43" from="28675510#1" to="23840887#0"/>
    <trip id="226" depart="397.19" from="186623965#9" to="-297047307"/>
    <trip id="227" depart="398.95" from="-28675510#0" to="23286179#2"/>
    <trip id="228" depart="400.70" from="23840712#0" to="23283469"/>
    <trip id="229" depart="402.46" from="23283470#5" to="-297047310#2"/>
    <trip id="230" depart="404.22" from="-22959475#4" to="-297047310#3"/>
    <trip id="231" depart="405.98" from="-28675510#5" to="-8716807#6"/>
    <trip id="232" depart="407.73" from="22959550#4" to="-23686088#0"/>
    <trip id="233" depart="409.49" from="-28675493" to="23686088#0"/>
    <trip id="234" depart="411.25" from="23647118" to="-225249129#0"/>
    <trip id="235" depart="413.01" from="132042183" to="23283470#3"/>
    <trip id="236" depart="414.76" from="133081985#0" to="-28675494#1"/>
    <trip id="237" depart="416.52" from="133081985#0" to="297047309#0"/>
    <trip id="238" depart="418.28" from="22959552#5" to="23686088#0"/>
    <trip id="239" depart="420.04" from="24694889" to="23840888#1"/>
    <trip id="240" depart="421.79" from="-8716807#0" to="-132042183"/>
    <trip id="241" depart="423.55" from="-353069169#0" to="23840887#2"/>
    <trip id="242" depart="425.31" from="24675285" to="4936412"/>
    <trip id="243" depart="427.07" from="133081985#0" to="23840887#2"/>
    <trip id="244" depart="428.82" from="22959552#0" to="23283580#0"/>
    <trip id="245" depart="430.58" from="-25166682#0" to="-28675510#0"/>
    <trip id="246" depart="432.34" from="133081987#0" to="-133081987#2"/>
    <trip id="247" depart="434.09" from="-309744810#1" to="23648008#2"/>
    <trip id="248" depart="435.85" from="-8716807#6" to="-23840712#4"/>
    <trip id="249" depart="437.61" from="186623965#15" to="-23648008#3"/>
    <trip id="250" depart="439.37" from="23283470#3" to="-133081987#2"/>
    <trip id="251" depart="441.12" from="-8716807#5" to="23283472#0"/>
    <trip id="252" depart="442.88" from="-133081987#2" to="23286180"/>
    <trip id="253" depart="444.64" from="-23648008#3" to="22959552#0"/>
    <trip id="254" depart="446.40" from="-225249129#0" to="186623965#15"/>
    <trip id="255" depart="448.15" from="-24610382" to="-8716807#6"/>
    <trip id="256" depart="449.91" from="23686088#1" to="186623965#15"/>
    <trip id="257" depart="451.67" from="23686088#0" to="28675493"/>
    <trip id="258" depart="453.43" from="-28675510#11" to="-22917421#4"/>
    <trip id="259" depart="455.18" from="-133081985#1" to="23283470#2"/>
    <trip id="260" depart="456.94" from="8716827#0" to="133081987#0"/>
    <trip id="261" depart="458.70" from="23283473" to="23840971"/>
    <trip id="262" depart="460.46" from="23283474" to="23840887#3"/>
    <trip id="263" depart="462.21" from="297047310#4" to="-28675493"/>
    <trip id="264" depart="463.97" from="-133081985#1" to="-23840712#0"/>
    <trip id="265" depart="465.73" from="-23648008#1" to="23648008#1"/>
    <trip id="266" depart="467.49" from="22959552#2" to="-28675510#0"/>
    <trip id="267" depart="469.24" from="23647118" to="23840888#1"/>
    <trip id="268" depart="471.00" from="-23840712#4" to="23285888#0"/>
    <trip id="269" depart="472.76" from="23656410#0" to="-23648008#0"/>
    <trip id="270" depart="474.52" from="23840887#2" to="8716807#0"/>
    <trip id="271" depart="476.27" from="-23283580#1" to="-133081987#2"/>
    <trip id="272" depart="478.03" from="-297047309#0" to="23648008#2"/>
    <trip id="273" depart="479.79" from="60909001" to="225249129#0"/>
    <trip id="274" depart="481.55" from="23647126" to="-22917421#4"/>
    <trip id="275" depart="483.30" from="23286179#1" to="23286179#1"/>
    <trip id="276" depart="485.06" from="-23283579#1" to="23840935"/>
    <trip id="277" depart="486.82" from="24675285" to="23283580#0"/>
    <trip id="278" depart="488.58" from="-23648008#0" to="8716807#6"/>
    <trip id="279" depart="490.33" from="23840712#4" to="133081987#0"/>
    <trip id="280" depart="492.09" from="133081985#1" to="155723703#0"/>
    <trip id="281" depart="493.85" from="22917421#5" to="133081985#1"/>
    <trip id="282" depart="495.61" from="24675285" to="25166682#0"/>
    <trip id="283" depart="497.36" from="-23283579#1" to="8716807#0"/>
    <trip id="284" depart="499.12" from="23283472#0" to="28675493"/>
    <trip id="285" depart="500.88" from="23647118" to="22959550#1"/>
    <trip id="286" depart="502.64" from="23648008#2" to="8716807#0"/>
    <trip id="287" depart="504.39" from="-28675510#5" to="24610382"/>
    <trip id="288" depart="506.15" from="22959550#4" to="22959552#2"/>
    <trip id="289" depart="507.91" from="133081987#0" to="23840713#2"/>
    <trip id="290" depart="509.67" from="-28675510#5" to="28675510#0"/>
    <trip id="291" depart="511.42" from="23840888#0" to="-23283472#2"/>
    <trip id="292" depart="513.18" from="28675494#0" to="-28691861"/>
    <trip id="293" depart="514.94" from="186623965#15" to="23285888#0"/>
    <trip id="294" depart="516.70" from="-8716807#0" to="-133081987#2"/>
    <trip id="295" depart="518.45" from="24675285" to="-23840888#1"/>
    <trip id="296" depart="520.21" from="-24610382" to="24487264"/>
    <trip id="297" depart="521.97" from="-309744810#1" to="28691861"/>
    <trip id="298" depart="523.73" from="23647118" to="-297047310#2"/>
    <trip id="299" depart="525.48" from="-133081985#0" to="42925825#0"/>
    <trip id="300" depart="527.24" from="-23283472#2" to="23840712#4"/>
    <trip id="301" depart="529.00" from="225249129#0" to="23840887#3"/>
    <trip id="302" depart="530.76" from="23286179#1" to="23286180"/>
    <trip id="303" depart="532.51" from="225249129#0" to="23840972"/>
    <trip id="304" depart="534.27" from="-23283579#0" to="-28675510#3"/>
    <trip id="305" depart="536.03" from="23286179#2" to="-8716807#4"/>
    <trip id="306" depart="537.79" from="22959552#5" to="22959552#1"/>
    <trip id="307" depart="539.54" from="22959550#3" to="22959475#0"/>
    <trip id="308" depart="541.30" from="23656410#0" to="133081985#0"/>
    <trip id="309" depart="543.06" from="23647118" to="-297047310#2"/>
    <trip id="310" depart="544.82" from="-28675510#0" to="-23648008#1"/>
    <trip id="311" depart="546.57" from="-23840971" to="-23648008#1"/>
    <trip id="312" depart="548.33" from="22959550#3" to="23840887#3"/>
    <trip id="313" depart="550.09" from="-23840935" to="-28675510#0"/>
    <trip id="315" depart="553.60" from="8716807#5" to="23283470#0"/>
    <trip id="316" depart="555.36" from="-28691861" to="-23283579#1"/>
    <trip id="317" depart="557.12" from="-23840971" to="-28675510#3"/>
    <trip id="318" depart="558.88" from="-23840935" to="-133081985#0"/>
    <trip id="319" depart="560.63" from="22959550#3" to="-297047310#2"/>
    <trip id="320" depart="562.39" from="8716807#1" to="23283470#5"/>
    <trip id="321" depart="564.15" from="23286179#2" to="-23648008#3"/>
    <trip id="323" depart="567.66" from="28675493" to="23283474"/>
    <trip id="324" depart="569.42" from="186623965#15" to="22959550#1"/>
    <trip id="326" depart="572.93" from="297047310#3" to="22959552#2"/>
    <trip id="327" depart="574.69" from="23840887#3" to="225249129#0"/>
    <trip id="328" depart="576.45" from="-22959475#4" to="23286179#1"/>
    <trip id="329" depart="578.21" from="-225249129#0" to="-23840712#0"/>
    <trip id="330" depart="579.96" from="22959552#2" to="-8716807#4"/>
    <trip id="331" depart="581.72" from="8716827#0" to="-23648008#1"/>
    <trip id="332" depart="583.48" from="23840712#0" to="23283580#0"/>
    <trip id="333" depart="585.24" from="23840713#0" to="-28675510#3"/>
    <trip id="334" depart="586.99" from="22959550#1" to="22959550#3"/>
    <trip id="335" depart="588.75" from="133081987#3" to="28675510#1"/>
    <trip id="336" depart="590.51" from="8716807#6" to="-8716807#4"/>
    <trip id="337" depart="592.27" from="23283470#3" to="23285888#0"/>
    <trip id="338" depart="594.02" from="23656410#0" to="42925825#0"/>
    <trip id="339" depart="595.78" from="-24487264" to="-28675494#1"/>
    <trip id="340" depart="597.54" from="23283579#0" to="-23840712#3"/>
    <trip id="341" depart="599.30" from="-23840888#1" to="-22917421#4"/>
    <trip id="342" depart="601.05" from="-132042183" to="22959550#3"/>
    <trip id="343" depart="602.81" from="23283469" to="-309744810#1"/>
    <trip id="344" depart="604.57" from="-28675493" to="23840712#1"/>
    <trip id="345" depart="606.33" from="23647118" to="22959550#4"/>
    <trip id="346" depart="608.08" from="23286179#1" to="297047310#4"/>
    <trip id="347" depart="609.84" from="23840712#4" to="23286179#1"/>
    <trip id="348" depart="611.60" from="23283579#0" to="323416262"/>
    <trip id="349" depart="613.36" from="133081985#1" to="23283470#3"/>
    <trip id="350" depart="615.11" from="23283473" to="297047309#0"/>
    <trip id="351" depart="616.87" from="23840887#3" to="-22917421#14"/>
    <trip id="352" depart="618.63" from="-23840712#4" to="-8716807#4"/>
    <trip id="353" depart="620.39" from="23686088#0" to="23283473"/>
    <trip id="354" depart="622.14" from="-290365598#1" to="-23648008#3"/>
    <trip id="355" depart="623.90" from="23286179#1" to="23686088#1"/>
    <trip id="356" depart="625.66" from="297047310#3" to="23283435#1"/>
    <trip id="357" depart="627.42" from="225249129#0" to="-22917421#4"/>
    <trip id="358" depart="629.17" from="-186623965#16" to="22959550#0"/>
    <trip id="359" depart="630.93" from="-297047310#2" to="-290365598#1"/>
    <trip id="360" depart="632.69" from="-23283579#0" to="8716807#0"/>
    <trip id="361" depart="634.45" from="23840888#0" to="23283474"/>
    <trip id="362" depart="636.20" from="297047310#4" to="8716827#0"/>
    <trip id="363" depart="637.96" from="23285888#0" to="-297047308"/>
    <trip id="364" depart="639.72" from="-186623965#16" to="23840887#3"/>
    <trip id="365" depart="641.48" from="186623965#15" to="23647126"/>
    <trip id="366" depart="643.23" from="28691861" to="-23840888#1"/>
    <trip id="367" depart="644.99" from="22959552#5" to="23286179#2"/>
    <trip id="368" depart="646.75" from="225249129#0" to="-23283579#0"/>
    <trip id="369" depart="648.51" from="-323450710#0" to="133081985#0"/>
    <trip id="370" depart="650.26" from="23285888#0" to="28675510#1"/>
    <trip id="371" depart="652.02" from="-297047310#3" to="23686088#0"/>
    <trip id="372" depart="653.78" from="-290365598#1" to="42925825#0"/>
    <trip id="373" depart="655.54" from="23840887#2" to="23283470#5"/>
    <trip id="374" depart="657.29" from="155600123#0" to="-8716807#5"/>
    <trip id="375" depart="659.05" from="-297047310#2" to="8716807#1"/>
    <trip id="376" depart="660.81" from="-8716807#6" to="23283436"/>
    <trip id="377" depart="662.57" from="8716807#6" to="23648008#0"/>
    <trip id="378" depart="664.32" from="22959550#4" to="22917421#5"/>
    <trip id="379" depart="666.08" from="-23840971" to="155600123#0"/>
    <trip id="380" depart="667.84" from="23686088#1" to="23286179#1"/>
    <trip id="381" depart="669.60" from="23686088#1" to="-28675493"/>
    <trip id="382" depart="671.35" from="22959552#0" to="323416262"/>
    <trip id="383" depart="673.11" from="133081987#0" to="23686088#1"/>
    <trip id="384" depart="674.87" from="-23648008#0" to="8716807#1"/>
    <trip id="385" depart="676.63" from="23283470#0" to="-28691861"/>
    <trip id="386" depart="678.38" from="-23840712#3" to="23283470#5"/>
    <trip id="387" depart="680.14" from="22959552#0" to="-23283579#0"/>
    <trip id="388" depart="681.90" from="8716827#0" to="297047310#3"/>
    <trip id="389" depart="683.66" from="160807420" to="-23648008#1"/>
    <trip id="390" depart="685.41" from="23840888#0" to="22959552#5"/>
    <trip id="391" depart="687.17" from="23648008#0" to="23283436"/>
    <trip id="392" depart="688.93" from="-28675510#5" to="28675493"/>
    <trip id="393" depart="690.69" from="8716807#5" to="-28691861"/>
    <trip id="394" depart="692.44" from="22959552#0" to="186623965#15"/>
    <trip id="395" depart="694.20" from="290365598#0" to="23283436"/>
    <trip id="396" depart="695.96" from="28675494#0" to="28675510#4"/>
    <trip id="397" depart="697.72" from="-28675510#5" to="23840972"/>
    <trip id="398" depart="699.47" from="133081985#0" to="323416262"/>
    <trip id="399" depart="701.23" from="22917421#5" to="25166682#0"/>
    <trip id="400" depart="702.99" from="-28691861" to="-8716807#0"/>
    <trip id="401" depart="704.75" from="23283435#1" to="8716827#0"/>
    <trip id="402" depart="706.50" from="225249129#0" to="-23840712#0"/>
    <trip id="403" depart="708.26" from="22959550#4" to="133081987#0"/>
    <trip id="404" depart="710.02" from="22959552#0" to="23283470#3"/>
    <trip id="405" depart="711.78" from="160807420" to="-8716807#6"/>
    <trip id="406" depart="713.53" from="-23840971" to="23686088#1"/>
    <trip id="407" depart="715.29" from="22959552#4" to="-28675510#5"/>
    <trip id="408" depart="717.05" from="23840712#1" to="-186623965#16"/>
    <trip id="409" depart="718.80" from="23656410#0" to="23840712#1"/>
    <trip id="410" depart="720.56" from="23840887#0" to="186623965#17"/>
    <trip id="411" depart="722.32" from="23283579#0" to="25166682#0"/>
    <trip id="412" depart="724.08" from="8716807#5" to="22959552#5"/>
    <trip id="413" depart="725.83" from="-186623965#16" to="23283435#1"/>
    <trip id="414" depart="727.59" from="23283435#1" to="28675510#7"/>
    <trip id="415" depart="729.35" from="28675493" to="22959550#1"/>
    <trip id="416" depart="731.11" from="22959550#1" to="22959550#4"/>
    <trip id="417" depart="732.86" from="23648008#0" to="22917421#5"/>
    <trip id="418" depart="734.62" from="23283474" to="-23840712#0"/>
    <trip id="419" depart="736.38" from="186623965#15" to="8716807#1"/>
    <trip id="420" depart="738.14" from="-309744810#1" to="23686088#0"/>