<?xml version="1.0" encoding="UTF-8"?>

<!-- generated on 2024-06-02 16:05:41 by Eclipse SUMO duarouter Version 1.19.0
<configuration xmlns:xsi="http://www.w3.org/2001/XMLSchema-instance" xsi:noNamespaceSchemaLocation="http://sumo.dlr.de/xsd/duarouterConfiguration.xsd">

    <input>
        <net-file value="data/4x4grid_similar_to_resco_train_new_files/grid4x4.net.xml"/>
        <route-files value="data/4x4grid_similar_to_resco_train_new_files/random_trips.trips.xml"/>
    </input>

    <output>
        <output-file value="data/4x4grid_similar_to_resco_train_new_files/random_routes.rou.xml"/>
        <write-trips value="true"/>
    </output>

    <time>
        <begin value="0"/>
        <end value="5000"/>
    </time>

    <report>
        <verbose value="true"/>
    </report>

</configuration>
-->

<routes xmlns:xsi="http://www.w3.org/2001/XMLSchema-instance" xsi:noNamespaceSchemaLocation="http://sumo.dlr.de/xsd/routes_file.xsd">
    <trip id="0" depart="0.00" from="D1C1" to="A0B0"/>
    <trip id="1" depart="2.44" from="B2A2" to="A3left3"/>
    <trip id="2" depart="4.88" from="D3D2" to="C2D2"/>
    <trip id="3" depart="7.32" from="right1D1" to="A1A2"/>
    <trip id="4" depart="9.76" from="C1B1" to="A0B0"/>
    <trip id="5" depart="12.20" from="B1A1" to="C0B0"/>
    <trip id="6" depart="14.63" from="A0B0" to="A3A2"/>
    <trip id="7" depart="17.07" from="D1D0" to="C0D0"/>
    <trip id="8" depart="19.51" from="B1B0" to="C1C0"/>
    <trip id="9" depart="21.95" from="bottom3D0" to="A0A1"/>
    <trip id="10" depart="24.39" from="bottom3D0" to="C3B3"/>
    <trip id="11" depart="26.83" from="B3A3" to="A2A3"/>
    <trip id="12" depart="29.27" from="top1B3" to="B1B0"/>
    <trip id="13" depart="31.71" from="A2A1" to="A1B1"/>
    <trip id="14" depart="34.15" from="left2A2" to="C1C2"/>
    <trip id="15" depart="36.59" from="bottom3D0" to="C3D3"/>
    <trip id="16" depart="39.02" from="C2D2" to="D3right3"/>
    <trip id="17" depart="41.46" from="C0B0" to="C0bottom2"/>
    <trip id="18" depart="43.90" from="left1A1" to="C1D1"/>
    <trip id="19" depart="46.34" from="left3A3" to="C1B1"/>
    <trip id="20" depart="48.78" from="D2D3" to="A0bottom0"/>
    <trip id="21" depart="51.22" from="B1B0" to="B0C0"/>
    <trip id="22" depart="53.66" from="A2A1" to="A3left3"/>
    <trip id="23" depart="56.10" from="A2A3" to="B0B1"/>
    <trip id="24" depart="58.54" from="D1C1" to="B1C1"/>
    <trip id="25" depart="60.98" from="B3C3" to="A3B3"/>
    <trip id="26" depart="63.41" from="B2A2" to="D2right2"/>
    <trip id="27" depart="65.85" from="D1D0" to="C1C2"/>
    <trip id="28" depart="68.29" from="B0A0" to="C3D3"/>
    <trip id="29" depart="70.73" from="B0A0" to="B2A2"/>
    <trip id="30" depart="73.17" from="top3D3" to="C2B2"/>
    <trip id="31" depart="75.61" from="C3B3" to="C2D2"/>
    <trip id="32" depart="78.05" from="left1A1" to="D0D1"/>
    <trip id="33" depart="80.49" from="B1B0" to="A0bottom0"/>
    <trip id="34" depart="82.93" from="B2C2" to="B0B1"/>
    <trip id="35" depart="85.37" from="B1A1" to="D3C3"/>
    <trip id="36" depart="87.80" from="right0D0" to="B1A1"/>
    <trip id="37" depart="90.24" from="D1D0" to="B2B1"/>
    <trip id="38" depart="92.68" from="right2D2" to="B3B2"/>
    <trip id="39" depart="95.12" from="B1C1" to="A3top0"/>
    <trip id="40" depart="97.56" from="C3B3" to="B0A0"/>
    <trip id="41" depart="100.00" from="C3D3" to="D2D1"/>
    <trip id="42" depart="102.44" from="C0C1" to="A3left3"/>
    <trip id="43" depart="104.88" from="top3D3" to="C0B0"/>
    <trip id="44" depart="107.32" from="A2A1" to="A0left0"/>
    <trip id="45" depart="109.76" from="A2B2" to="C2B2"/>
    <trip id="46" depart="112.20" from="bottom2C0" to="B2C2"/>
    <trip id="47" depart="114.63" from="A1B1" to="B2A2"/>
    <trip id="48" depart="117.07" from="top3D3" to="C0C1"/>
    <trip id="49" depart="119.51" from="top2C3" to="D1right1"/>
    <trip id="50" depart="121.95" from="A0A1" to="C3D3"/>
    <trip id="51" depart="124.39" from="D2C2" to="C0D0"/>
    <trip id="52" depart="126.83" from="B2A2" to="C2C1"/>
    <trip id="53" depart="129.27" from="A2B2" to="B2C2"/>
    <trip id="54" depart="131.71" from="C1C2" to="D3D2"/>
    <trip id="55" depart="134.15" from="right0D0" to="B0A0"/>
    <trip id="56" depart="136.59" from="C2C1" to="A2left2"/>
    <trip id="57" depart="139.02" from="right2D2" to="D1right1"/>
    <trip id="58" depart="141.46" from="B2B3" to="C2B2"/>
    <trip id="59" depart="143.90" from="D0C0" to="A2A3"/>
    <trip id="60" depart="146.34" from="bottom0A0" to="C0D0"/>
    <trip id="61" depart="148.78" from="bottom1B0" to="C0C1"/>
    <trip id="62" depart="151.22" from="A0A1" to="B1A1"/>
    <trip id="63" depart="153.66" from="A0B0" to="D2right2"/>
    <trip id="64" depart="156.10" from="right0D0" to="D1D0"/>
    <trip id="65" depart="158.54" from="B2B3" to="A0left0"/>
    <trip id="66" depart="160.98" from="right0D0" to="D3C3"/>
    <trip id="67" depart="163.41" from="A2A1" to="B3top1"/>
    <trip id="68" depart="165.85" from="A1B1" to="D0C0"/>
    <trip id="69" depart="168.29" from="bottom1B0" to="A2A1"/>
    <trip id="70" depart="170.73" from="C1D1" to="C0bottom2"/>
    <trip id="71" depart="173.17" from="B1C1" to="D1right1"/>
    <trip id="72" depart="175.61" from="C1B1" to="A3B3"/>
    <trip id="73" depart="178.05" from="C2D2" to="C3D3"/>
    <trip id="74" depart="180.49" from="B0C0" to="B0bottom1"/>
    <trip id="75" depart="182.93" from="top3D3" to="C2C1"/>
    <trip id="76" depart="185.37" from="C1C0" to="C0C1"/>
    <trip id="77" depart="187.80" from="A2B2" to="A3left3"/>
    <trip id="78" depart="190.24" from="B3A3" to="C1C0"/>
    <trip id="79" depart="192.68" from="B1B0" to="A3left3"/>
    <trip id="80" depart="195.12" from="A1B1" to="C2B2"/>
    <trip id="81" depart="197.56" from="B1B0" to="D2D1"/>
    <trip id="82" depart="200.00" from="left3A3" to="A1A0"/>
    <trip id="83" depart="202.44" from="B1B2" to="C2C3"/>
    <trip id="84" depart="204.88" from="B1A1" to="A2A1"/>
    <trip id="85" depart="207.32" from="right3D3" to="C1B1"/>
    <trip id="86" depart="209.76" from="C1D1" to="D0bottom3"/>
    <trip id="87" depart="212.20" from="bottom3D0" to="A3A2"/>
    <trip id="88" depart="214.63" from="A2A3" to="B2C2"/>
    <trip id="89" depart="217.07" from="C1B1" to="B3B2"/>
    <trip id="90" depart="219.51" from="D3C3" to="C2D2"/>
    <trip id="91" depart="221.95" from="top2C3" to="A1B1"/>
    <trip id="92" depart="224.39" from="C0C1" to="B1B0"/>
    <trip id="93" depart="226.83" from="left3A3" to="A3top0"/>
    <trip id="94" depart="229.27" from="B0C0" to="B3A3"/>
    <trip id="95" depart="231.71" from="C1B1" to="B0B1"/>
    <trip id="96" depart="234.15" from="B1B2" to="D2right2"/>
    <trip id="97" depart="236.59" from="C1C0" to="D1right1"/>
    <trip id="98" depart="239.02" from="C3B3" to="A0left0"/>
    <trip id="99" depart="241.46" from="top3D3" to="D1D0"/>
    <trip id="100" depart="243.90" from="top2C3" to="D2right2"/>
    <trip id="101" depart="246.34" from="left2A2" to="A2B2"/>
    <trip id="102" depart="248.78" from="C2B2" to="A3B3"/>
    <trip id="103" depart="251.22" from="C0C1" to="A0left0"/>
    <trip id="104" depart="253.66" from="C0B0" to="D3top3"/>
    <trip id="105" depart="256.10" from="B1C1" to="D0bottom3"/>
    <trip id="106" depart="258.54" from="C1C2" to="B2C2"/>
    <trip id="107" depart="260.98" from="top1B3" to="D3top3"/>
    <trip id="108" depart="263.41" from="C3B3" to="C3C2"/>
    <trip id="109" depart="265.85" from="A3B3" to="B0C0"/>
    <trip id="110" depart="268.29" from="top1B3" to="C1C0"/>
    <trip id="111" depart="270.73" from="C2D2" to="C3top2"/>
    <trip id="112" depart="273.17" from="A1A2" to="C1C0"/>
    <trip id="113" depart="275.61" from="C2C1" to="D1D2"/>
    <trip id="114" depart="278.05" from="B0A0" to="D3D2"/>
    <trip id="115" depart="280.49" from="A2A1" to="A2left2"/>
    <trip id="116" depart="282.93" from="D0C0" to="C2D2"/>
    <trip id="117" depart="285.37" from="B1B2" to="A1left1"/>
    <trip id="118" depart="287.80" from="right0D0" to="A3top0"/>
    <trip id="119" depart="290.24" from="D0C0" to="C1D1"/>
    <trip id="120" depart="292.68" from="C0D0" to="C1C0"/>
    <trip id="121" depart="295.12" from="C2C3" to="D2right2"/>
    <trip id="122" depart="297.56" from="B1A1" to="C3C2"/>
    <trip id="123" depart="300.00" from="B1B2" to="B2B1"/>
    <trip id="124" depart="302.44" from="D1D2" to="B0bottom1"/>
    <trip id="125" depart="304.88" from="B2C2" to="D0C0"/>
    <trip id="126" depart="307.32" from="A1B1" to="B3B2"/>
    <trip id="127" depart="309.76" from="top3D3" to="D3top3"/>
    <trip id="128" depart="312.20" from="A1B1" to="A3B3"/>
    <trip id="129" depart="314.63" from="B1C1" to="D2right2"/>
    <trip id="130" depart="317.07" from="right0D0" to="D2C2"/>
    <trip id="131" depart="319.51" from="B3C3" to="A2B2"/>
    <trip id="132" depart="321.95" from="left1A1" to="C3C2"/>
    <trip id="133" depart="324.39" from="D0D1" to="D3top3"/>
    <trip id="134" depart="326.83" from="D1D0" to="A0A1"/>
    <trip id="135" depart="329.27" from="left0A0" to="B0bottom1"/>
    <trip id="136" depart="331.71" from="D1D2" to="D3C3"/>
    <trip id="137" depart="334.15" from="A3A2" to="A1left1"/>
    <trip id="138" depart="336.59" from="A2A3" to="C0bottom2"/>
    <trip id="139" depart="339.02" from="B2A2" to="C1C2"/>
    <trip id="140" depart="341.46" from="D2D3" to="A3B3"/>
    <trip id="141" depart="343.90" from="D1C1" to="B0A0"/>
    <trip id="142" depart="346.34" from="C2B2" to="D2D1"/>
    <trip id="143" depart="348.78" from="left2A2" to="A1A2"/>
    <trip id="144" depart="351.22" from="C1B1" to="B0B1"/>
    <trip id="145" depart="353.66" from="A0A1" to="D0D1"/>
    <trip id="146" depart="356.10" from="D1C1" to="B0A0"/>
    <trip id="147" depart="358.54" from="D3D2" to="C0bottom2"/>
    <trip id="148" depart="360.98" from="C1B1" to="A0A1"/>
    <trip id="149" depart="363.41" from="A1B1" to="D2C2"/>
    <trip id="150" depart="365.85" from="right1D1" to="C0D0"/>
    <trip id="151" depart="368.29" from="left1A1" to="C1C0"/>
    <trip id="152" depart="370.73" from="A3B3" to="A2A1"/>
    <trip id="153" depart="373.17" from="B2B3" to="D2D1"/>
    <trip id="154" depart="375.61" from="bottom2C0" to="D1right1"/>
    <trip id="155" depart="378.05" from="right1D1" to="A3B3"/>
    <trip id="156" depart="380.49" from="B1B2" to="A1B1"/>
    <trip id="157" depart="382.93" from="bottom1B0" to="D2C2"/>
    <trip id="158" depart="385.37" from="C0D0" to="C1D1"/>
    <trip id="159" depart="387.80" from="A3B3" to="D2right2"/>
    <trip id="160" depart="390.24" from="left3A3" to="D3right3"/>
    <trip id="161" depart="392.68" from="bottom3D0" to="D2C2"/>
    <trip id="162" depart="395.12" from="A0B0" to="C3top2"/>
    <trip id="163" depart="397.56" from="B3A3" to="D2right2"/>
    <trip id="164" depart="400.00" from="bottom3D0" to="D1right1"/>
    <trip id="165" depart="402.44" from="bottom3D0" to="B0B1"/>
    <trip id="166" depart="404.88" from="bottom2C0" to="A1B1"/>
    <trip id="167" depart="407.32" from="left3A3" to="D1D2"/>
    <trip id="168" depart="409.76" from="B1B0" to="D1C1"/>
    <trip id="169" depart="412.20" from="C1C2" to="B0bottom1"/>
    <trip id="170" depart="414.63" from="bottom2C0" to="A3left3"/>
    <trip id="171" depart="417.07" from="A0B0" to="A3A2"/>
    <trip id="172" depart="419.51" from="B3A3" to="D1right1"/>
    <trip id="173" depart="421.95" from="top1B3" to="B0B1"/>
    <trip id="174" depart="424.39" from="D1D0" to="B2B1"/>
    <trip id="175" depart="426.83" from="top2C3" to="C0D0"/>
    <trip id="176" depart="429.27" from="top0A3" to="A1left1"/>
    <trip id="177" depart="431.71" from="top2C3" to="A2left2"/>
    <trip id="178" depart="434.15" from="top1B3" to="B0A0"/>
    <trip id="179" depart="436.59" from="A2A3" to="B2C2"/>
    <trip id="180" depart="439.02" from="D3C3" to="B1A1"/>
    <trip id="181" depart="441.46" from="D0C0" to="C0B0"/>
    <trip id="182" depart="443.90" from="C0B0" to="C1B1"/>
    <trip id="183" depart="446.34" from="B1C1" to="C3C2"/>
    <trip id="184" depart="448.78" from="A0A1" to="D2right2"/>
    <trip id="185" depart="451.22" from="C2D2" to="C3D3"/>
    <trip id="186" depart="453.66" from="D3D2" to="C2C3"/>
    <trip id="187" depart="456.10" from="B3C3" to="A1A0"/>
    <trip id="188" depart="458.54" from="D1D2" to="B1B0"/>
    <trip id="189" depart="460.98" from="B2C2" to="D1D2"/>
    <trip id="190" depart="463.41" from="D3C3" to="B0bottom1"/>
    <trip id="191" depart="465.85" from="B2B3" to="B2B3"/>
    <trip id="192" depart="468.29" from="C0C1" to="B0C0"/>
    <trip id="193" depart="470.73" from="A3A2" to="B2B3"/>
    <trip id="194" depart="473.17" from="top0A3" to="C2D2"/>
    <trip id="195" depart="475.61" from="right1D1" to="C1D1"/>
    <trip id="196" depart="478.05" from="B2B3" to="C0bottom2"/>
    <trip id="197" depart="480.49" from="A0A1" to="B0C0"/>
    <trip id="198" depart="482.93" from="C1B1" to="C1C0"/>
    <trip id="199" depart="485.37" from="D1D0" to="B3B2"/>
    <trip id="200" depart="487.80" from="C1C0" to="A3B3"/>
    <trip id="201" depart="490.24" from="C1D1" to="D2D1"/>
    <trip id="202" depart="492.68" from="bottom2C0" to="A2B2"/>
    <trip id="203" depart="495.12" from="A2A1" to="C0B0"/>
    <trip id="204" depart="497.56" from="D1C1" to="B1B0"/>
    <trip id="205" depart="500.00" from="left0A0" to="D0C0"/>
    <trip id="206" depart="502.44" from="D2C2" to="A3left3"/>
    <trip id="207" depart="504.88" from="B0C0" to="A0B0"/>
    <trip id="208" depart="507.32" from="B1B2" to="B3C3"/>
    <trip id="209" depart="509.76" from="left2A2" to="A1A0"/>
    <trip id="210" depart="512.20" from="C0D0" to="C2B2"/>
    <trip id="211" depart="514.63" from="B0C0" to="C3B3"/>
    <trip id="212" depart="517.07" from="C2B2" to="A3top0"/>
    <trip id="213" depart="519.51" from="D1D0" to="A0A1"/>
    <trip id="214" depart="521.95" from="bottom0A0" to="D0D1"/>
    <trip id="215" depart="524.39" from="A2A3" to="B2C2"/>
    <trip id="216" depart="526.83" from="B0B1" to="D3D2"/>
    <trip id="217" depart="529.27" from="C2C3" to="A0left0"/>
    <trip id="218" depart="531.71" from="B1B2" to="D1D2"/>
    <trip id="219" depart="534.15" from="C1C2" to="D0right0"/>
    <trip id="220" depart="536.59" from="D1D2" to="D3top3"/>
    <trip id="221" depart="539.02" from="D0C0" to="D3C3"/>
    <trip id="222" depart="541.46" from="right1D1" to="C1D1"/>
    <trip id="223" depart="543.90" from="D3C3" to="C0B0"/>
    <trip id="224" depart="546.34" from="left1A1" to="C0bottom2"/>
    <trip id="225" depart="548.78" from="right1D1" to="C3top2"/>
    <trip id="226" depart="551.22" from="C1D1" to="B0A0"/>
    <trip id="227" depart="553.66" from="B1B2" to="C2B2"/>
    <trip id="228" depart="556.10" from="bottom1B0" to="C0C1"/>
    <trip id="229" depart="558.54" from="D1C1" to="B0B1"/>
    <trip id="230" depart="560.98" from="A1B1" to="B0C0"/>
    <trip id="231" depart="563.41" from="B2A2" to="B1A1"/>
    <trip id="232" depart="565.85" from="C2D2" to="A2A1"/>
    <trip id="233" depart="568.29" from="B1B0" to="C3B3"/>
    <trip id="234" depart="570.73" from="D2D3" to="A1A0"/>
    <trip id="235" depart="573.17" from="C0D0" to="C0D0"/>
    <trip id="236" depart="575.61" from="C0D0" to="A3B3"/>
    <trip id="237" depart="578.05" from="C0D0" to="D2D1"/>
    <trip id="238" depart="580.49" from="C3D3" to="C3B3"/>
    <trip id="239" depart="582.93" from="left2A2" to="D0C0"/>
    <trip id="240" depart="585.37" from="C0B0" to="A0A1"/>
    <trip id="241" depart="587.80" from="B3B2" to="D0C0"/>
    <trip id="242" depart="590.24" from="left2A2" to="D3D2"/>
    <trip id="243" depart="592.68" from="C0D0" to="C3top2"/>
    <trip id="244" depart="595.12" from="C2D2" to="C1C2"/>
    <trip id="245" depart="597.56" from="B1B0" to="A3left3"/>
    <trip id="246" depart="600.00" from="C1B1" to="A0B0"/>
    <trip id="247" depart="602.44" from="B3A3" to="C2D2"/>
    <trip id="248" depart="604.88" from="C0C1" to="A2B2"/>
    <trip id="249" depart="607.32" from="C1C2" to="A2A1"/>
    <trip id="250" depart="609.76" from="D0D1" to="A0B0"/>
    <trip id="251" depart="612.20" from="C0C1" to="C1B1"/>
    <trip id="252" depart="614.63" from="A0B0" to="C2C1"/>
    <trip id="253" depart="617.07" from="A3A2" to="B3B2"/>
    <trip id="254" depart="619.51" from="A1A2" to="B2A2"/>
    <trip id="255" depart="621.95" from="B1A1" to="B1A1"/>
    <trip id="256" depart="624.39" from="bottom0A0" to="B2A2"/>
    <trip id="257" depart="626.83" from="bottom0A0" to="D1D0"/>
    <trip id="258" depart="629.27" from="B1C1" to="A1A2"/>
    <trip id="259" depart="631.71" from="A0B0" to="C0D0"/>
    <trip id="260" depart="634.15" from="top3D3" to="B1B2"/>
    <trip id="261" depart="636.59" from="D1D0" to="D0D1"/>
    <trip id="262" depart="639.02" from="D1D0" to="D0C0"/>
    <trip id="263" depart="641.46" from="top0A3" to="A3A2"/>
    <trip id="264" depart="643.90" from="A0B0" to="A2A3"/>
    <trip id="265" depart="646.34" from="A3A2" to="C2C3"/>
    <trip id="266" depart="648.78" from="C3C2" to="A3B3"/>
    <trip id="267" depart="651.22" from="D2D1" to="D0D1"/>
    <trip id="268" depart="653.66" from="B0A0" to="C1C2"/>
    <trip id="269" depart="656.10" from="D3D2" to="A1left1"/>
    <trip id="270" depart="658.54" from="left0A0" to="D3D2"/>
    <trip id="271" depart="660.98" from="A2A3" to="A0B0"/>
    <trip id="272" depart="663.41" from="B2B3" to="C2D2"/>
    <trip id="273" depart="665.85" from="top1B3" to="B2B1"/>
    <trip id="274" depart="668.29" from="D2D3" to="A1A0"/>
    <trip id="275" depart="670.73" from="D2D1" to="C2B2"/>
    <trip id="276" depart="673.17" from="A2A3" to="D0D1"/>
    <trip id="277" depart="675.61" from="left2A2" to="C1C2"/>
    <trip id="278" depart="678.05" from="A2B2" to="D3right3"/>
    <trip id="279" depart="680.49" from="bottom2C0" to="B1B2"/>
    <trip id="280" depart="682.93" from="C1B1" to="B1C1"/>
    <trip id="281" depart="685.37" from="C2C1" to="B1B0"/>
    <trip id="282" depart="687.80" from="left2A2" to="D1C1"/>
    <trip id="283" depart="690.24" from="A2A3" to="D3D2"/>
    <trip id="284" depart="692.68" from="D1C1" to="D1D0"/>
    <trip id="285" depart="695.12" from="D2D3" to="B2C2"/>
    <trip id="286" depart="697.56" from="D3C3" to="D3D2"/>
    <trip id="287" depart="700.00" from="B2A2" to="D0right0"/>
    <trip id="288" depart="702.44" from="C2D2" to="B3C3"/>
    <trip id="289" depart="704.88" from="C1B1" to="C3D3"/>
    <trip id="290" depart="707.32" from="B2A2" to="D1D2"/>
    <trip id="291" depart="709.76" from="left1A1" to="A1A2"/>
    <trip id="292" depart="712.20" from="right0D0" to="A3top0"/>
    <trip id="293" depart="714.63" from="C1C2" to="C1D1"/>
    <trip id="294" depart="717.07" from="C0B0" to="A0B0"/>
    <trip id="295" depart="719.51" from="left2A2" to="A2left2"/>
    <trip id="296" depart="721.95" from="B1A1" to="D0right0"/>
    <trip id="297" depart="724.39" from="B3A3" to="D2C2"/>
    <trip id="298" depart="726.83" from="D2D1" to="B0B1"/>
    <trip id="299" depart="729.27" from="A0A1" to="D3C3"/>
    <trip id="300" depart="731.71" from="A2A1" to="C3D3"/>
    <trip id="301" depart="734.15" from="C2B2" to="D0C0"/>
    <trip id="302" depart="736.59" from="D2D1" to="C2C1"/>
    <trip id="303" depart="739.02" from="C2B2" to="D0bottom3"/>
    <trip id="304" depart="741.46" from="A2A1" to="A3left3"/>
    <trip id="305" depart="743.90" from="D2D1" to="B0bottom1"/>
    <trip id="306" depart="746.34" from="C3D3" to="B3C3"/>
    <trip id="307" depart="748.78" from="C2C3" to="B2C2"/>
    <trip id="308" depart="751.22" from="D3D2" to="B1B0"/>
    <trip id="309" depart="753.66" from="D2D1" to="B0B1"/>
    <trip id="310" depart="756.10" from="B1C1" to="A1left1"/>
    <trip id="311" depart="758.54" from="B0C0" to="A1left1"/>
    <trip id="312" depart="760.98" from="C2D2" to="D0C0"/>
    <trip id="313" depart="763.41" from="B0B1" to="A3B3"/>
    <trip id="314" depart="765.85" from="C1D1" to="C3D3"/>
    <trip id="315" depart="768.29" from="top2C3" to="C0C1"/>
    <trip id="316" depart="770.73" from="B2B1" to="A1B1"/>
    <trip id="317" depart="773.17" from="B0C0" to="A3left3"/>
    <trip id="318" depart="775.61" from="B0B1" to="A0A1"/>
    <trip id="319" depart="778.05" from="C2D2" to="B0B1"/>
    <trip id="320" depart="780.49" from="top2C3" to="C0bottom2"/>
    <trip id="321" depart="782.93" from="D2D1" to="A2A1"/>
    <trip id="322" depart="785.37" from="left3A3" to="B3top1"/>
    <trip id="323" depart="787.80" from="left3A3" to="C1B1"/>
    <trip id="324" depart="790.24" from="C1D1" to="B3A3"/>
    <trip id="325" depart="792.68" from="B0B1" to="A0left0"/>
    <trip id="326" depart="795.12" from="top0A3" to="B3C3"/>
    <trip id="327" depart="797.56" from="left0A0" to="B2B1"/>
    <trip id="328" depart="800.00" from="A1B1" to="C2B2"/>
    <trip id="329" depart="802.44" from="A1A2" to="A2A3"/>
    <trip id="330" depart="804.88" from="C3C2" to="B0bottom1"/>
    <trip id="331" depart="807.32" from="top3D3" to="A1left1"/>
    <trip id="332" depart="809.76" from="bottom0A0" to="C1C2"/>
    <trip id="333" depart="812.20" from="bottom2C0" to="A3left3"/>
    <trip id="334" depart="814.63" from="C2C3" to="B3A3"/>
    <trip id="335" depart="817.07" from="C1C0" to="D1right1"/>
    <trip id="336" depart="819.51" from="top3D3" to="B0bottom1"/>
    <trip id="337" depart="821.95" from="D0D1" to="C1D1"/>
    <trip id="338" depart="824.39" from="D3D2" to="D3C3"/>
    <trip id="339" depart="826.83" from="B1A1" to="A3B3"/>
    <trip id="340" depart="829.27" from="D1D2" to="A2B2"/>
    <trip id="341" depart="831.71" from="B0B1" to="A1A0"/>
    <trip id="342" depart="834.15" from="A0A1" to="B3A3"/>
    <trip id="343" depart="836.59" from="D0C0" to="B0C0"/>
    <trip id="344" depart="839.02" from="B1B0" to="C3C2"/>
    <trip id="345" depart="841.46" from="D2D1" to="B3B2"/>
    <trip id="346" depart="843.90" from="D2C2" to="D2right2"/>
    <trip id="347" depart="846.34" from="bottom2C0" to="C2B2"/>
    <trip id="348" depart="848.78" from="D1D2" to="D2right2"/>
    <trip id="349" depart="851.22" from="C1B1" to="C0D0"/>
    <trip id="350" depart="853.66" from="D1D0" to="D2D3"/>
    <trip id="351" depart="856.10" from="left0A0" to="A1A0"/>
    <trip id="352" depart="858.54" from="B0A0" to="B0bottom1"/>
    <trip id="353" depart="860.98" from="D3D2" to="C1B1"/>
    <trip id="354" depart="863.41" from="B2B1" to="A1left1"/>
    <trip id="355" depart="865.85" from="D2D1" to="C3B3"/>
    <trip id="356" depart="868.29" from="top0A3" to="C0B0"/>
    <trip id="357" depart="870.73" from="C2B2" to="A1A2"/>
    <trip id="358" depart="873.17" from="A1A0" to="B2C2"/>
    <trip id="359" depart="875.61" from="B2C2" to="B0A0"/>
    <trip id="360" depart="878.05" from="A2A1" to="D3D2"/>
    <trip id="361" depart="880.49" from="left1A1" to="C1B1"/>
    <trip id="362" depart="882.93" from="top0A3" to="D3top3"/>
    <trip id="363" depart="885.37" from="D2C2" to="B0B1"/>
    <trip id="364" depart="887.80" from="A1A0" to="D0C0"/>
    <trip id="365" depart="890.24" from="C1D1" to="C2C1"/>
    <trip id="366" depart="892.68" from="right2D2" to="A2left2"/>
    <trip id="367" depart="895.12" from="C3D3" to="C2B2"/>
    <trip id="368" depart="897.56" from="C2B2" to="A1A2"/>
    <trip id="369" depart="900.00" from="B3B2" to="B1B0"/>
    <trip id="370" depart="902.44" from="D1D2" to="D1D2"/>
    <trip id="371" depart="904.88" from="B3A3" to="C3B3"/>
    <trip id="372" depart="907.32" from="B2B1" to="D3C3"/>
    <trip id="373" depart="909.76" from="left0A0" to="C0bottom2"/>
    <trip id="374" depart="912.20" from="C1C2" to="B1A1"/>
    <trip id="375" depart="914.63" from="B2C2" to="D3right3"/>
    <trip id="376" depart="917.07" from="C0C1" to="C0B0"/>
    <trip id="377" depart="919.51" from="top3D3" to="C2C3"/>
    <trip id="378" depart="921.95" from="C2D2" to="B2B3"/>
    <trip id="379" depart="924.39" from="B0C0" to="B1C1"/>
    <trip id="380" depart="926.83" from="bottom0A0" to="C2B2"/>
    <trip id="381" depart="929.27" from="bottom0A0" to="A3B3"/>
    <trip id="382" depart="931.71" from="C3B3" to="D2right2"/>
    <trip id="383" depart="934.15" from="C1C0" to="C3B3"/>
    <trip id="384" depart="936.59" from="A2B2" to="D3right3"/>
    <trip id="385" depart="939.02" from="D0C0" to="A3top0"/>
    <trip id="386" depart="941.46" from="B0A0" to="C0bottom2"/>
    <trip id="387" depart="943.90" from="C3B3" to="A1A2"/>
    <trip id="388" depart="946.34" from="top3D3" to="D2D3"/>
    <trip id="389" depart="948.78" from="C1C2" to="A1left1"/>
    <trip id="390" depart="951.22" from="left1A1" to="B3top1"/>
    <trip id="391" depart="953.66" from="D2D3" to="C0B0"/>
    <trip id="392" depart="956.10" from="B2A2" to="D1D0"/>
    <trip id="393" depart="958.54" from="top2C3" to="A3top0"/>
    <trip id="394" depart="960.98" from="C3B3" to="B2A2"/>
    <trip id="395" depart="963.41" from="right2D2" to="C0B0"/>
    <trip id="396" depart="965.85" from="right0D0" to="D1right1"/>
    <trip id="397" depart="968.29" from="B2A2" to="D0bottom3"/>
    <trip id="398" depart="970.73" from="C0D0" to="D2right2"/>
    <trip id="399" depart="973.17" from="C2C1" to="D1C1"/>
    <trip id="400" depart="975.61" from="B2B1" to="B0bottom1"/>
    <trip id="401" depart="978.05" from="C3D3" to="D3top3"/>
    <trip id="402" depart="980.49" from="C2B2" to="A2A3"/>
    <trip id="403" depart="982.93" from="C2D2" to="B1B2"/>
    <trip id="404" depart="985.37" from="C3B3" to="C0D0"/>
    <trip id="405" depart="987.80" from="C1C2" to="B1A1"/>
    <trip id="406" depart="990.24" from="B0C0" to="C3B3"/>
    <trip id="407" depart="992.68" from="C3C2" to="A3left3"/>
    <trip id="408" depart="995.12" from="bottom1B0" to="A0bottom0"/>
    <trip id="409" depart="997.56" from="D3D2" to="C3C2"/>
    <trip id="410" depart="1000.00" from="bottom3D0" to="B2A2"/>
    <trip id="411" depart="1002.44" from="D1D2" to="D1C1"/>
    <trip id="412" depart="1004.88" from="top2C3" to="B3top1"/>
    <trip id="413" depart="1007.32" from="A1A0" to="C0B0"/>
    <trip id="414" depart="1009.76" from="C3D3" to="D1right1"/>
    <trip id="415" depart="1012.20" from="left3A3" to="B3A3"/>
    <trip id="416" depart="1014.63" from="C2C3" to="B3B2"/>
    <trip id="417" depart="1017.07" from="D3C3" to="B2B3"/>
    <trip id="418" depart="1019.51" from="D1D0" to="A2A3"/>
    <trip id="419" depart="1021.95" from="C1D1" to="D3right3"/>
    <trip id="420" depart="1024.39" from="B3A3" to="C3B3"/>
    <trip id="421" depart="1026.83" from="D1D0" to="D1D2"/>
    <trip id="422" depart="1029.27" from="left2A2" to="D1D2"/>
    <trip id="423" depart="1031.71" from="C0B0" to="B1A1"/>
    <trip id="424" depart="1034.15" from="D2D3" to="D0C0"/>
    <trip id="425" depart="1036.59" from="left3A3" to="A0bottom0"/>
    <trip id="426" depart="1039.02" from="A1B1" to="C2B2"/>
    <trip id="427" depart="1041.46" from="right2D2" to="D3top3"/>
    <trip id="428" depart="1043.90" from="D3D2" to="B2C2"/>
    <trip id="429" depart="1046.34" from="A2A3" to="C2B2"/>
    <trip id="430" depart="1048.78" from="left3A3" to="B3A3"/>
    <trip id="431" depart="1051.22" from="D2D1" to="D2D1"/>
    <trip id="432" depart="1053.66" from="A1A0" to="D0bottom3"/>
    <trip id="433" depart="1056.10" from="B2B1" to="B1C1"/>
    <trip id="434" depart="1058.54" from="A3B3" to="C0C1"/>
    <trip id="435" depart="1060.98" from="C3C2" to="D0bottom3"/>
    <trip id="436" depart="1063.41" from="B0A0" to="A1A2"/>
    <trip id="437" depart="1065.85" from="left3A3" to="C1D1"/>
    <trip id="438" depart="1068.29" from="B1B2" to="D2D3"/>
    <trip id="439" depart="1070.73" from="A3B3" to="B3B2"/>
    <trip id="440" depart="1073.17" from="B1C1" to="B0A0"/>
    <trip id="441" depart="1075.61" from="A0A1" to="D0right0"/>
    <trip id="442" depart="1078.05" from="right1D1" to="C2D2"/>
    <trip id="443" depart="1080.49" from="B0A0" to="B3A3"/>
    <trip id="444" depart="1082.93" from="B3B2" to="C1C0"/>
    <trip id="445" depart="1085.37" from="D1C1" to="B2C2"/>
    <trip id="446" depart="1087.80" from="B1C1" to="D1D2"/>
    <trip id="447" depart="1090.24" from="B0C0" to="B2A2"/>
    <trip id="448" depart="1092.68" from="C1D1" to="A3top0"/>
    <trip id="449" depart="1095.12" from="C3C2" to="C1B1"/>
    <trip id="450" depart="1097.56" from="top3D3" to="B0C0"/>
    <trip id="451" depart="1100.00" from="top2C3" to="C2C3"/>
    <trip id="452" depart="1102.44" from="B2A2" to="C1B1"/>
    <trip id="453" depart="1104.88" from="D2C2" to="C3top2"/>
    <trip id="454" depart="1107.32" from="A1A2" to="C1C2"/>
    <trip id="455" depart="1109.76" from="C2B2" to="D2D1"/>
    <trip id="456" depart="1112.20" from="B2B1" to="D0right0"/>
    <trip id="457" depart="1114.63" from="D0C0" to="B1B2"/>
    <trip id="458" depart="1117.07" from="D1C1" to="C1D1"/>
    <trip id="459" depart="1119.51" from="D2C2" to="C3D3"/>
    <trip id="460" depart="1121.95" from="D1D2" to="D1D0"/>
    <trip id="461" depart="1124.39" from="D1C1" to="D2D1"/>
    <trip id="462" depart="1126.83" from="D1D0" to="B0bottom1"/>
    <trip id="463" depart="1129.27" from="C1C0" to="C1C0"/>
    <trip id="464" depart="1131.71" from="D3C3" to="A1A2"/>
    <trip id="465" depart="1134.15" from="B2B1" to="C3top2"/>
    <trip id="466" depart="1136.59" from="B0B1" to="A2A1"/>
    <trip id="467" depart="1139.02" from="C2D2" to="D3right3"/>
    <trip id="468" depart="1141.46" from="C2C3" to="D2D3"/>
    <trip id="469" depart="1143.90" from="left1A1" to="B0A0"/>
    <trip id="470" depart="1146.34" from="left0A0" to="B3C3"/>
    <trip id="471" depart="1148.78" from="bottom3D0" to="C3top2"/>
    <trip id="472" depart="1151.22" from="B3A3" to="A1left1"/>
    <trip id="473" depart="1153.66" from="top1B3" to="A2A3"/>
    <trip id="474" depart="1156.10" from="top1B3" to="D1right1"/>
    <trip id="475" depart="1158.54" from="D3C3" to="D3right3"/>
    <trip id="476" depart="1160.98" from="top1B3" to="D0right0"/>
    <trip id="477" depart="1163.41" from="B3C3" to="D0bottom3"/>
    <trip id="478" depart="1165.85" from="A0A1" to="C0D0"/>